REMARK  Name = Unii-24P4O1J71F
REMARK  9 active torsions:
REMARK  status: ('A' for Active; 'I' for Inactive)
REMARK    1  A    between atoms: C_2  and  N_3
REMARK    2  A    between atoms: C_2  and  C_37
REMARK    3  A    between atoms: N_3  and  S_4
REMARK    4  A    between atoms: S_4  and  C_7
REMARK    5  A    between atoms: C_12  and  C_14
REMARK    6  A    between atoms: C_14  and  C_15
REMARK    7  A    between atoms: C_18  and  O_19
REMARK    8  A    between atoms: O_19  and  C_20
REMARK    9  A    between atoms: N_28  and  C_29
REMARK                            x       y       z     vdW  Elec       q    Type
REMARK                         _______ _______ _______ _____ _____    ______ ____
ROOT
ATOM      7  C   UNL     1       1.276   0.000   0.000  0.00  0.00    +0.000 A 
ATOM      8  C   UNL     1       0.394   1.214   0.000  0.00  0.00    +0.000 A 
ATOM      9  N   UNL     1      -1.032   0.750   0.000  0.00  0.00    +0.000 NA
ATOM     10  C   UNL     1      -1.032  -0.750   0.000  0.00  0.00    +0.000 A 
ATOM     11  N   UNL     1       0.394  -1.214   0.000  0.00  0.00    +0.000 N 
ATOM     12  C   UNL     1       0.394  -2.713   0.000  0.00  0.00    +0.000 C 
ATOM     13  C   UNL     1       1.886  -2.557   0.000  0.00  0.00    +0.000 C 
ATOM     26  C   UNL     1      -1.032  -3.177   0.000  0.00  0.00    +0.000 C 
ATOM     27  O   UNL     1      -1.502  -3.928   0.000  0.00  0.00    +0.000 OA
ATOM     28  N   UNL     1      -1.914  -1.964   0.000  0.00  0.00    +0.000 N 
ENDROOT
BRANCH  28  29
ATOM     29  C   UNL     1      -3.414  -1.964   0.000  0.00  0.00    +0.000 A 
ATOM     30  C   UNL     1      -4.164  -0.664   0.000  0.00  0.00    +0.000 A 
ATOM     31  C   UNL     1      -5.664  -0.664   0.000  0.00  0.00    +0.000 A 
ATOM     32 CL   UNL     1      -6.414   0.635   0.000  0.00  0.00    +0.000 Cl
ATOM     33  C   UNL     1      -6.414  -1.964   0.000  0.00  0.00    +0.000 A 
ATOM     34  C   UNL     1      -5.664  -3.263   0.000  0.00  0.00    +0.000 A 
ATOM     35 CL   UNL     1      -6.414  -4.562   0.000  0.00  0.00    +0.000 Cl
ATOM     36  C   UNL     1      -4.164  -3.263   0.000  0.00  0.00    +0.000 A 
ENDBRANCH  28  29
BRANCH   7   4
ATOM      4  S   UNL     1       2.776   0.000   0.000  0.00  0.00    +0.000 S 
ATOM      5  O   UNL     1       2.776   1.500   0.000  0.00  0.00    +0.000 OA
ATOM      6  O   UNL     1       2.776  -1.500   0.000  0.00  0.00    +0.000 OA
BRANCH   4   3
ATOM      3  N   UNL     1       4.276   0.000   0.000  0.00  0.00    +0.000 NA
BRANCH   3   2
ATOM      1  C   UNL     1       6.526  -1.299   0.000  0.00  0.00    +0.000 C 
ATOM      2  C   UNL     1       5.026  -1.299   0.000  0.00  0.00    +0.000 C 
BRANCH   2  37
ATOM     37  C   UNL     1       4.276  -2.598   0.000  0.00  0.00    +0.000 C 
ATOM     38  N   UNL     1       5.026  -3.897   0.000  0.00  0.00    +0.000 NA
ATOM     39  O   UNL     1       2.776  -2.598   0.000  0.00  0.00    +0.000 OA
ENDBRANCH   2  37
ENDBRANCH   3   2
ENDBRANCH   4   3
ENDBRANCH   7   4
BRANCH  12  14
ATOM     14  C   UNL     1       0.706  -4.181   0.000  0.00  0.00    +0.000 C 
BRANCH  14  15
ATOM     15  C   UNL     1      -0.409  -5.184   0.000  0.00  0.00    +0.000 A 
ATOM     16  C   UNL     1      -0.097  -6.652   0.000  0.00  0.00    +0.000 A 
ATOM     17  C   UNL     1      -1.211  -7.655   0.000  0.00  0.00    +0.000 A 
ATOM     18  C   UNL     1      -2.638  -7.192   0.000  0.00  0.00    +0.000 A 
ATOM     24  C   UNL     1      -2.950  -5.725   0.000  0.00  0.00    +0.000 A 
ATOM     25  C   UNL     1      -1.835  -4.721   0.000  0.00  0.00    +0.000 A 
BRANCH  18  19
ATOM     19  O   UNL     1      -3.753  -8.195   0.000  0.00  0.00    +0.000 OA
BRANCH  19  20
ATOM     20  C   UNL     1      -3.441  -9.663   0.000  0.00  0.00    +0.000 C 
ATOM     21  F   UNL     1      -3.129 -11.130   0.000  0.00  0.00    +0.000 F 
ATOM     22  F   UNL     1      -4.908  -9.975   0.000  0.00  0.00    +0.000 F 
ATOM     23  F   UNL     1      -1.974  -9.351   0.000  0.00  0.00    +0.000 F 
ENDBRANCH  19  20
ENDBRANCH  18  19
ENDBRANCH  14  15
ENDBRANCH  12  14
TORSDOF 9
