REMARK  Name = DRINABANT
REMARK  6 active torsions:
REMARK  status: ('A' for Active; 'I' for Inactive)
REMARK    1  A    between atoms: S_2  and  N_5
REMARK    2  A    between atoms: N_5  and  C_6
REMARK    3  A    between atoms: N_5  and  C_14
REMARK    4  A    between atoms: N_16  and  C_17
REMARK    5  A    between atoms: C_17  and  C_18
REMARK    6  A    between atoms: C_17  and  C_25
REMARK                            x       y       z     vdW  Elec       q    Type
REMARK                         _______ _______ _______ _____ _____    ______ ____
ROOT
ATOM     14  C   UNL     1       0.750  -3.897   0.000  0.00  0.00    +0.000 C 
ATOM     15  C   UNL     1      -0.699  -4.285   0.000  0.00  0.00    +0.000 C 
ATOM     16  N   UNL     1      -0.311  -5.734   0.000  0.00  0.00    +0.000 NA
ATOM     32  C   UNL     1       1.138  -5.346   0.000  0.00  0.00    +0.000 C 
ENDROOT
BRANCH  14   5
ATOM      5  N   UNL     1       1.500  -2.598   0.000  0.00  0.00    +0.000 N 
BRANCH   5   6
ATOM      6  C   UNL     1       0.750  -1.299   0.000  0.00  0.00    +0.000 A 
ATOM      7  C   UNL     1       1.500   0.000   0.000  0.00  0.00    +0.000 A 
ATOM      8  C   UNL     1       0.750   1.299   0.000  0.00  0.00    +0.000 A 
ATOM      9  F   UNL     1       1.500   2.598   0.000  0.00  0.00    +0.000 F 
ATOM     10  C   UNL     1      -0.750   1.299   0.000  0.00  0.00    +0.000 A 
ATOM     11  C   UNL     1      -1.500   0.000   0.000  0.00  0.00    +0.000 A 
ATOM     12  F   UNL     1      -3.000   0.000   0.000  0.00  0.00    +0.000 F 
ATOM     13  C   UNL     1      -0.750  -1.299   0.000  0.00  0.00    +0.000 A 
ENDBRANCH   5   6
BRANCH   5   2
ATOM      1  C   UNL     1       4.500  -2.598   0.000  0.00  0.00    +0.000 C 
ATOM      2  S   UNL     1       3.000  -2.598   0.000  0.00  0.00    +0.000 S 
ATOM      3  O   UNL     1       3.000  -1.098   0.000  0.00  0.00    +0.000 OA
ATOM      4  O   UNL     1       3.000  -4.098   0.000  0.00  0.00    +0.000 OA
ENDBRANCH   5   2
ENDBRANCH  14   5
BRANCH  16  17
ATOM     17  C   UNL     1      -1.061  -7.033   0.000  0.00  0.00    +0.000 C 
BRANCH  17  18
ATOM     18  C   UNL     1      -2.561  -7.033   0.000  0.00  0.00    +0.000 A 
ATOM     19  C   UNL     1      -3.311  -5.734   0.000  0.00  0.00    +0.000 A 
ATOM     20  C   UNL     1      -4.811  -5.734   0.000  0.00  0.00    +0.000 A 
ATOM     21  C   UNL     1      -5.561  -7.033   0.000  0.00  0.00    +0.000 A 
ATOM     22 CL   UNL     1      -7.061  -7.033   0.000  0.00  0.00    +0.000 Cl
ATOM     23  C   UNL     1      -4.811  -8.332   0.000  0.00  0.00    +0.000 A 
ATOM     24  C   UNL     1      -3.311  -8.332   0.000  0.00  0.00    +0.000 A 
ENDBRANCH  17  18
BRANCH  17  25
ATOM     25  C   UNL     1      -0.311  -8.332   0.000  0.00  0.00    +0.000 A 
ATOM     26  C   UNL     1      -1.061  -9.631   0.000  0.00  0.00    +0.000 A 
ATOM     27  C   UNL     1      -0.311 -10.930   0.000  0.00  0.00    +0.000 A 
ATOM     28  C   UNL     1       1.189 -10.930   0.000  0.00  0.00    +0.000 A 
ATOM     29 CL   UNL     1       1.939 -12.229   0.000  0.00  0.00    +0.000 Cl
ATOM     30  C   UNL     1       1.939  -9.631   0.000  0.00  0.00    +0.000 A 
ATOM     31  C   UNL     1       1.189  -8.332   0.000  0.00  0.00    +0.000 A 
ENDBRANCH  17  25
ENDBRANCH  16  17
TORSDOF 6
