@<TRIPOS>MOLECULE
A:6Q9L
    86    91     1     0     1
SMALL
NO_CHARGES
****
Generated from the CSD

@<TRIPOS>ATOM
     1 C5      13.6610  11.9713   5.7319   C.ar      1 HTZ201   0.0000
     2 C8      12.9020  14.0353   5.6859   C.2       1 HTZ201   0.0000
     3 C10     13.1140  12.1383   4.4619   C.ar      1 HTZ201   0.0000
     4 C13     13.6830   9.9122   3.9219   C.ar      1 HTZ201   0.0000
     5 C15     11.8130  14.0073   3.3019   C.2       1 HTZ201   0.0000
     6 C17     10.0050  14.6293   2.2340   C.2       1 HTZ201   0.0000
     7 C20     12.1380  14.2123   2.0090   C.2       1 HTZ201   0.0000
     8 C21     13.4420  14.1473   1.3300   C.ar      1 HTZ201   0.0000
     9 C22     13.4610  14.0493  -0.0700   C.ar      1 HTZ201   0.0000
    10 C24     14.6990  14.0033  -0.7250   C.ar      1 HTZ201   0.0000
    11 C26     15.8950  14.1153  -0.0260   C.ar      1 HTZ201   0.0000
    12 C28     15.8530  14.2373   1.3710   C.ar      1 HTZ201   0.0000
    13 CL1     14.9130   8.1842   5.6249   Cl        1 HTZ201   0.0000
    14 C2      14.2330   9.7362   5.1919   C.ar      1 HTZ201   0.0000
    15 C3      14.2460  10.7543   6.1489   C.ar      1 HTZ201   0.0000
    16 N6      13.4940  13.1103   6.4269   N.pl3     1 HTZ201   0.0000
    17 C9      12.5990  13.5353   4.4469   C.2       1 HTZ201   0.0000
    18 C11     13.1060  11.1193   3.5179   C.ar      1 HTZ201   0.0000
    19 N16     10.4770  14.2553   3.4199   N.pl3     1 HTZ201   0.0000
    20 N19     10.9340  14.6303   1.3700   N.2       1 HTZ201   0.0000
    21 C30     14.6300  14.2293   2.0190   C.ar      1 HTZ201   0.0000
    22 C32      9.6480  14.1743   4.6189   C.3       1 HTZ201   0.0000
    23 C35      9.5660  12.7803   5.2329   C.ar      1 HTZ201   0.0000
    24 C36      9.3870  12.5753   6.6059   C.ar      1 HTZ201   0.0000
    25 C37      9.3030  11.2723   7.0759   C.ar      1 HTZ201   0.0000
    26 C39      9.3670  10.1972   6.2179   C.ar      1 HTZ201   0.0000
    27 C40      9.5910  10.3652   4.8699   C.ar      1 HTZ201   0.0000
    28 C42      9.6640  11.6783   4.3839   C.ar      1 HTZ201   0.0000
    29 CL2      9.2340   8.6052   6.8889   Cl        1 HTZ201   0.0000
    30 C45      9.2800  13.7683   7.5609   C.3       1 HTZ201   0.0000
    31 O48      8.1770  14.6063   7.1809   O.3       1 HTZ201   0.0000
    32 C50     12.5690  15.3194   6.3109   C.2       1 HTZ201   0.0000
    33 O51     12.4660  15.3074   7.5709   O.2       1 HTZ201   0.0000
    34 N52     12.2830  16.4284   5.6229   N.am      1 HTZ201   0.0000
    35 C53     12.5110  16.7124   4.2269   C.3       1 HTZ201   0.0000
    36 C56     12.9060  18.2194   4.2589   C.3       1 HTZ201   0.0000
    37 C58     11.8380  18.7074   5.2369   C.3       1 HTZ201   0.0000
    38 C61     11.8990  17.6494   6.3529   C.3       1 HTZ201   0.0000
    39 N64     12.8000  18.7984   2.9050   N.3       1 HTZ201   0.0000
    40 C65     13.8140  18.2104   2.0230   C.3       1 HTZ201   0.0000
    41 C68     13.5100  18.5044   0.5390   C.3       1 HTZ201   0.0000
    42 C71     14.5040  17.7044  -0.3220   C.3       1 HTZ201   0.0000
    43 N74     14.3590  17.9104  -1.7800   N.3       1 HTZ201   0.0000
    44 C75     13.0790  17.3574  -2.3070   C.3       1 HTZ201   0.0000
    45 C79     15.5010  17.3804  -2.5700   C.3       1 HTZ201   0.0000
    46 C83     12.9550  20.2635   2.9890   C.3       1 HTZ201   0.0000
    47 H2183   11.6084  16.5530   3.6389   H         1 HTZ201   0.0000
    48 H2184   13.3181  16.1009   3.8261   H         1 HTZ201   0.0000
    49 H2185   10.2022  14.3461   7.5204   H         1 HTZ201   0.0000
    50 H2186    9.1236  13.4049   8.5754   H         1 HTZ201   0.0000
    51 H2187   13.0216  17.5342  -3.3800   H         1 HTZ201   0.0000
    52 H2188   12.2412  17.8474  -1.8130   H         1 HTZ201   0.0000
    53 H2189   13.0390  16.2866  -2.1129   H         1 HTZ201   0.0000
    54 H2190    9.7072   9.5100   4.2059   H         1 HTZ201   0.0000
    55 H2191   10.9294  17.5303   6.8342   H         1 HTZ201   0.0000
    56 H2192   12.6460  17.9107   7.1010   H         1 HTZ201   0.0000
    57 H2193   15.3271  17.5661  -3.6288   H         1 HTZ201   0.0000
    58 H2194   16.4187  17.8780  -2.2601   H         1 HTZ201   0.0000
    59 H2195   15.5938  16.3088  -2.3998   H         1 HTZ201   0.0000
    60 H2196    9.1842  11.0966   8.1440   H         1 HTZ201   0.0000
    61 H2197   15.5133  17.9968  -0.0361   H         1 HTZ201   0.0000
    62 H2198   14.3597  16.6456  -0.1123   H         1 HTZ201   0.0000
    63 H2199   14.7875  18.6286   2.2746   H         1 HTZ201   0.0000
    64 H2200   13.8321  17.1321   2.1738   H         1 HTZ201   0.0000
    65 H2202    9.8007  11.8418   3.3160   H         1 HTZ201   0.0000
    66 H2203    7.3550  14.3039   7.6487   H         1 HTZ201   0.0000
    67 H2204   13.9060  18.3556   4.6680   H         1 HTZ201   0.0000
    68 H2206   12.4909  18.2008   0.3041   H         1 HTZ201   0.0000
    69 H2207   13.6258  19.5693   0.3427   H         1 HTZ201   0.0000
    70 H2208   10.8553  18.7285   4.7680   H         1 HTZ201   0.0000
    71 H2209   12.0786  19.6979   5.6202   H         1 HTZ201   0.0000
    72 H2210   12.1724  20.6755   3.6244   H         1 HTZ201   0.0000
    73 H2211   12.8774  20.6945   1.9919   H         1 HTZ201   0.0000
    74 H2212   13.9295  20.5017   3.4126   H         1 HTZ201   0.0000
    75 H2217   16.7754  14.3375   1.9411   H         1 HTZ201   0.0000
    76 H2218    8.9686  14.8967   2.0332   H         1 HTZ201   0.0000
    77 H2219   14.7245  13.8769  -1.8063   H         1 HTZ201   0.0000
    78 H2220   12.5317  14.0098  -0.6363   H         1 HTZ201   0.0000
    79 H2221   16.8478  14.1085  -0.5533   H         1 HTZ201   0.0000
    80 H2222   13.7040   9.0795   3.2205   H         1 HTZ201   0.0000
    81 H2223   13.7830  13.2436   7.3907   H         1 HTZ201   0.0000
    82 H2224   14.6745  10.6200   7.1410   H         1 HTZ201   0.0000
    83 H2225   12.6772  11.2525   2.5258   H         1 HTZ201   0.0000
    84 H2226   10.0605  14.8518   5.3651   H         1 HTZ201   0.0000
    85 H2227    8.6395  14.4920   4.3583   H         1 HTZ201   0.0000
    86 H2228   14.6074  14.2897   3.1061   H         1 HTZ201   0.0000
@<TRIPOS>BOND
     1     1     3   ar
     2     5     7    2
     3     7     8    1
     4     8     9   ar
     5     9    10   ar
     6    10    11   ar
     7    11    12   ar
     8     4    14   ar
     9    13    14    1
    10     1    15   ar
    11    14    15   ar
    12     1    16    1
    13     2    16    1
    14     2    17    2
    15     3    17    1
    16     5    17    1
    17     3    18   ar
    18     4    18   ar
    19     5    19    1
    20     6    19    1
    21     6    20    2
    22     7    20    1
    23     8    21   ar
    24    12    21   ar
    25    19    22    1
    26    22    23    1
    27    23    24   ar
    28    24    25   ar
    29    25    26   ar
    30    26    27   ar
    31    23    28   ar
    32    27    28   ar
    33    26    29    1
    34    24    30    1
    35    30    31    1
    36     2    32    1
    37    32    33    2
    38    32    34   am
    39    34    35    1
    40    35    36    1
    41    36    37    1
    42    34    38    1
    43    37    38    1
    44    36    39    1
    45    39    40    1
    46    40    41    1
    47    41    42    1
    48    42    43    1
    49    43    44    1
    50    43    45    1
    51    39    46    1
    52    35    47    1
    53    35    48    1
    54    30    49    1
    55    30    50    1
    56    44    51    1
    57    44    52    1
    58    44    53    1
    59    27    54    1
    60    38    55    1
    61    38    56    1
    62    45    57    1
    63    45    58    1
    64    45    59    1
    65    25    60    1
    66    42    61    1
    67    42    62    1
    68    40    63    1
    69    40    64    1
    70    28    65    1
    71    31    66    1
    72    36    67    1
    73    41    68    1
    74    41    69    1
    75    37    70    1
    76    37    71    1
    77    46    72    1
    78    46    73    1
    79    46    74    1
    80    12    75    1
    81     6    76    1
    82    10    77    1
    83     9    78    1
    84    11    79    1
    85     4    80    1
    86    16    81    1
    87    15    82    1
    88    18    83    1
    89    22    84    1
    90    22    85    1
    91    21    86    1
@<TRIPOS>SUBSTRUCTURE
     1 HTZ201      1 GROUP             0 A     HTZ     0  
@<TRIPOS>SET
CCDC_LIGAND STATIC ATOMS
86 1 2 3 4 5 6 7 8 9 \
10 11 12 13 14 15 16 17 18 19 \
20 21 22 23 24 25 26 27 28 29 \
30 31 32 33 34 35 36 37 38 39 \
40 41 42 43 44 45 46 47 48 49 \
50 51 52 53 54 55 56 57 58 59 \
60 61 62 63 64 65 66 67 68 69 \
70 71 72 73 74 75 76 77 78 79 \
80 81 82 83 84 85 86 
