#       Name:                DRINABANT
#       Creating user name   noviasari
#       Creation time:       Wed Jul 24 16:07:56 2024


#       File generated by GOLD software.
#

@<TRIPOS>MOLECULE
DRINABANT
    32    35     1
SMALL
NO_CHARGES


@<TRIPOS>ATOM
      1 ****         0.4229   4.8731   0.0000 C.3            1 S1                 0.0000
      2 ****         1.1729   3.5740   0.0000 S.o2           1 S1                 0.0000
      3 ****         2.4720   4.3240   0.0000 O.2            1 S1                 0.0000
      4 ****        -0.1262   2.8241   0.0000 O.2            1 S1                 0.0000
      5 ****         1.9229   2.2750   0.0000 N.pl3          1 S1                 0.0000
      6 ****         3.4229   2.2750  -0.0000 C.2            1 S1                 0.0000
      7 ****         4.1729   3.5740  -0.0000 C.3            1 S1                 0.0000
      8 ****         5.6729   3.5739  -0.0000 C.2            1 S1                 0.0000
      9 ****         6.4230   4.8730  -0.0000 F              1 S1                 0.0000
     10 ****         6.4229   2.2749  -0.0000 C.3            1 S1                 0.0000
     11 ****         5.6729   0.9759  -0.0000 C.2            1 S1                 0.0000
     12 ****         6.4228  -0.3232  -0.0000 F              1 S1                 0.0000
     13 ****         4.1729   0.9759  -0.0000 C.3            1 S1                 0.0000
     14 ****         1.1729   0.9760   0.0000 C.ar           1 S1                 0.0000
     15 ****        -0.2760   0.5878   0.0000 C.3            1 S1                 0.0000
     16 ****         0.1122  -0.8611   0.0000 N.pl3          1 S1                 0.0000
     17 ****        -0.6378  -2.1602   0.0000 C.2            1 S1                 0.0000
     18 ****        -2.1378  -2.1602   0.0000 C.2            1 S1                 0.0000
     19 ****        -2.8878  -0.8611   0.0000 C.3            1 S1                 0.0000
     20 ****        -4.3878  -0.8611   0.0000 C.3            1 S1                 0.0000
     21 ****        -5.1378  -2.1602   0.0000 C.2            1 S1                 0.0000
     22 ****        -6.6378  -2.1602   0.0000 Cl             1 S1                 0.0000
     23 ****        -4.3878  -3.4592   0.0000 C.3            1 S1                 0.0000
     24 ****        -2.8878  -3.4592   0.0000 C.3            1 S1                 0.0000
     25 ****         0.1122  -3.4592   0.0000 C.2            1 S1                 0.0000
     26 ****        -0.6378  -4.7582   0.0000 C.3            1 S1                 0.0000
     27 ****         0.1122  -6.0573   0.0000 C.3            1 S1                 0.0000
     28 ****         1.6122  -6.0573   0.0000 C.2            1 S1                 0.0000
     29 ****         2.3622  -7.3563   0.0000 Cl             1 S1                 0.0000
     30 ****         2.3622  -4.7582   0.0000 C.3            1 S1                 0.0000
     31 ****         1.6122  -3.4592   0.0000 C.3            1 S1                 0.0000
     32 ****         1.5611  -0.4729   0.0000 C.3            1 S1                 0.0000
@<TRIPOS>BOND
    1    1    2 1     
    2    2    3 2     
    3    2    4 2     
    4    2    5 1     
    5    5    6 1     
    6    6    7 2     
    7    7    8 1     
    8    8    9 1     
    9    8   10 2     
   10   10   11 1     
   11   11   12 1     
   12   11   13 2     
   13    5   14 1     
   14   14   15 1     
   15   15   16 1     
   16   16   17 1     
   17   17   18 1     
   18   18   19 2     
   19   19   20 1     
   20   20   21 2     
   21   21   22 1     
   22   21   23 1     
   23   23   24 2     
   24   17   25 1     
   25   25   26 2     
   26   26   27 1     
   27   27   28 2     
   28   28   29 1     
   29   28   30 1     
   30   30   31 2     
   31   16   32 1     
   32   13    6 1     
   33   32   14 1     
   34   24   18 1     
   35   31   25 1     
@<TRIPOS>SUBSTRUCTURE
      1 S1             1
@<TRIPOS>SET
LONE_PAIRS      STATIC     ATOMS    <user>   **** ""
2 3 4
ATOM$BLUE        STATIC     ATOMS    COLORGROUP SYSTEM
2 3 4
