MEPPEP|meppep|sdf|1|dock4
  -GOLD-   6242416 73D 1   1.00000     0.00000

 33 36  0  0  0  0  0  0  0  0  1 V2000
    2.6576   13.0376    2.2224 C   0  0  0  0  0  0  0  0  0  0  0  0
    3.9681   12.8153    1.5274 O   0  0  0  0  0  0  0  0  0  0  0  0
    4.7107   13.9773    0.9373 C   0  0  0  0  0  0  0  0  0  0  0  0
    5.0769   15.1491    1.7991 C   0  0  0  0  0  0  0  0  0  0  0  0
    5.8195   16.3111    1.2089 C   0  0  0  0  0  0  0  0  0  0  0  0
    6.1958   16.3014   -0.2430 C   0  0  0  0  0  0  0  0  0  0  0  0
    5.8296   15.1296   -1.1048 C   0  0  0  0  0  0  0  0  0  0  0  0
    6.2060   15.1198   -2.5569 C   0  0  0  0  0  0  0  0  0  0  0  0
    5.2525   15.1042   -3.7147 C   0  0  0  0  0  0  0  0  0  0  0  0
    6.0590   15.0986   -4.9794 C   0  0  0  0  0  0  0  0  0  0  0  0
    5.5100   15.0835   -6.3752 N   0  0  0  0  0  0  0  0  0  0  0  0
    5.9660   16.1079   -7.3716 C   0  0  0  0  0  0  0  0  0  0  0  0
    5.4015   17.4971   -7.3307 C   0  0  0  0  0  0  0  0  0  0  0  0
    6.9864   15.7432   -8.4087 C   0  0  0  0  0  0  0  0  0  0  0  0
    7.4769   14.3296   -8.5138 C   0  0  0  0  0  0  0  0  0  0  0  0
    8.4973   13.9649   -9.5510 C   0  0  0  0  0  0  0  0  0  0  0  0
    9.0272   15.0138  -10.4831 C   0  0  0  0  0  0  0  0  0  0  0  0
    8.5367   16.4274  -10.3780 C   0  0  0  0  0  0  0  0  0  0  0  0
    7.5162   16.7921   -9.3409 C   0  0  0  0  0  0  0  0  0  0  0  0
    7.5111   15.1108   -4.6031 C   0  0  0  0  0  0  0  0  0  0  0  0
    8.6690   15.1101   -5.5567 O   0  0  0  0  0  0  0  0  0  0  0  0
    7.6018   15.1239   -3.1059 N   0  0  0  0  0  0  0  0  0  0  0  0
    8.8665   15.1386   -2.2995 C   0  0  0  0  0  0  0  0  0  0  0  0
   10.1860   15.3597   -2.9778 C   0  0  0  0  0  0  0  0  0  0  0  0
   11.4507   15.3744   -2.1713 C   0  0  0  0  0  0  0  0  0  0  0  0
   11.3959   15.1678   -0.6866 C   0  0  0  0  0  0  0  0  0  0  0  0
   12.6606   15.1825    0.1199 C   0  0  0  0  0  0  0  0  0  0  0  0
   13.9252   15.1970    0.9263 F   0  0  0  0  0  0  0  0  0  0  0  0
   13.0889   13.8994   -0.5285 F   0  0  0  0  0  0  0  0  0  0  0  0
   12.2323   16.4655    0.7682 F   0  0  0  0  0  0  0  0  0  0  0  0
   10.0764   14.9467   -0.0083 C   0  0  0  0  0  0  0  0  0  0  0  0
    8.8118   14.9320   -0.8148 C   0  0  0  0  0  0  0  0  0  0  0  0
    5.0870   13.9676   -0.5147 C   0  0  0  0  0  0  0  0  0  0  0  0
  1  2  1  0  0  0  0
  2  3  1  0  0  0  0
  3  4  2  0  0  0  0
  4  5  1  0  0  0  0
  5  6  2  0  0  0  0
  6  7  1  0  0  0  0
  8  7  1  0  0  0  0
  8  9  1  0  0  0  0
  9 10  1  0  0  0  0
 10 11  1  0  0  0  0
 11 12  1  0  0  0  0
 12 13  1  0  0  0  0
 12 14  1  0  0  0  0
 14 15  2  0  0  0  0
 15 16  1  0  0  0  0
 16 17  2  0  0  0  0
 17 18  1  0  0  0  0
 18 19  2  0  0  0  0
 10 20  1  0  0  0  0
 20 21  2  0  0  0  0
 20 22  1  0  0  0  0
 22 23  1  0  0  0  0
 23 24  2  0  0  0  0
 24 25  1  0  0  0  0
 25 26  2  0  0  0  0
 26 27  1  0  0  0  0
 27 28  1  0  0  0  0
 27 29  1  0  0  0  0
 27 30  1  0  0  0  0
 26 31  1  0  0  0  0
 31 32  2  0  0  0  0
  7 33  2  0  0  0  0
 33  3  1  0  0  0  0
 22  8  1  0  0  0  0
 32 23  1  0  0  0  0
 19 14  1  0  0  0  0
M  END
> <Gold.Version>
2024.1.0

> <Gold.Id.Protein>
6Q9L|6Q9L_protein|mol2

> <Gold.PLP.Fitness>
33.8337

> <Gold.PLP.PLP>
-35.4735

> <Gold.PLP.part.hbond>
0.0000

> <Gold.PLP.part.metal>
0.0000

> <Gold.PLP.part.buried>
-3.0224

> <Gold.PLP.part.nonpolar>
-33.0131

> <Gold.PLP.part.repulsive>
0.1083

> <Gold.PLP.ligand.clash>
0.0605

> <Gold.PLP.ligand.torsion>
2.6584

> <Gold.PLP.Chemscore.Hbond>
0.0000

> <Gold.PLP.Chemscore.CHOScore>
0.0000

> <Gold.PLP.Chemscore.Metal>
0.0000

> <Gold.PLP.Chemscore.Internal.Correction>
3.7375

> <Gold.Protein.RotatedTorsions>
[ 1932    1    2    3 ] final   -5.43 input   60.00 | X-H torsion
[ 1726  314  313  311 ] final   58.77 input -140.00 | X-H torsion
[ 1619  347  346  344 ] final  -45.32 input  180.00 | X-H torsion
[ 1600  369  368  365 ] final  -61.95 input  -80.00 | X-H torsion
[ 2112  410  409  407 ] final  170.87 input   -0.00 | X-H torsion
[ 2483  607  606  603 ] final   74.06 input  170.00 | X-H torsion
[ 2515  623  622  621 ] final  140.89 input   70.00 | X-H torsion

> <Gold.Protein.ActiveResidues>
 GLN18   LEU54   PHE55   TYR56   LEU57   GLY58   GLN59   TYR60   ILE61   MET62  
 THR63   TYR67   GLN72   HIS73   ILE74   VAL75   PHE91   SER92   VAL93   LYS94  
 GLU95   HIS96   ILE99  

> <Gold.Protein.RotatedAtoms>
   23.3658   15.5121    4.0566 H   0  0  0  0  0  0  0  0  0  0  0  0  # atno 1600 bound_to 369 
   26.4601    8.0961    4.3039 H   0  0  0  0  0  0  0  0  0  0  0  0  # atno 1619 bound_to 347 
   20.3252   18.5703   14.9526 H   0  0  0  0  0  0  0  0  0  0  0  0  # atno 1726 bound_to 314 
    0.7521   10.5054    8.7694 H   0  0  0  0  0  0  0  0  0  0  0  0  # atno 1932 bound_to 1   
   -0.1844   10.5730    7.4035 H   0  0  0  0  0  0  0  0  0  0  0  0  # atno 1933 bound_to 1   
   19.5102   18.1494   -3.0466 H   0  0  0  0  0  0  0  0  0  0  0  0  # atno 2112 bound_to 410 
    8.8030    8.0094   -3.5428 H   0  0  0  0  0  0  0  0  0  0  0  0  # atno 2483 bound_to 607 
    4.6095   12.9156   -5.4028 H   0  0  0  0  0  0  0  0  0  0  0  0  # atno 2515 bound_to 623 
    3.9281   11.4442   -5.0590 H   0  0  0  0  0  0  0  0  0  0  0  0  # atno 2516 bound_to 623 
    5.2234   11.5374   -6.0889 H   0  0  0  0  0  0  0  0  0  0  0  0  # atno 2517 bound_to 623 
    1.4201   10.9288    7.3267 LP  0  0  0  0  0  0  0  0  0  0  0  0  # atno 3256 bound_to 1   
   21.5696   17.7266   15.5752 LP  0  0  0  0  0  0  0  0  0  0  0  0  # atno 3267 bound_to 314 
   20.0894   17.6277   16.2578 LP  0  0  0  0  0  0  0  0  0  0  0  0  # atno 3268 bound_to 314 
   25.2506    7.2811    3.5820 LP  0  0  0  0  0  0  0  0  0  0  0  0  # atno 3279 bound_to 347 
   25.6395    6.9637    5.1360 LP  0  0  0  0  0  0  0  0  0  0  0  0  # atno 3280 bound_to 347 
   24.7399   16.0183    4.7663 LP  0  0  0  0  0  0  0  0  0  0  0  0  # atno 3287 bound_to 369 
   24.8029   15.1506    3.3843 LP  0  0  0  0  0  0  0  0  0  0  0  0  # atno 3288 bound_to 369 
   18.3748   18.6163   -4.1148 LP  0  0  0  0  0  0  0  0  0  0  0  0  # atno 3291 bound_to 410 
   19.8124   18.0491   -4.6424 LP  0  0  0  0  0  0  0  0  0  0  0  0  # atno 3292 bound_to 410 
    8.5079    7.7071   -1.9713 LP  0  0  0  0  0  0  0  0  0  0  0  0  # atno 3308 bound_to 607 
    7.5058    7.1223   -3.1205 LP  0  0  0  0  0  0  0  0  0  0  0  0  # atno 3309 bound_to 607 

$$$$
