MEPPEP|meppep|sdf|1|dock10
  -GOLD-   6242416 83D 1   1.00000     0.00000

 33 36  0  0  0  0  0  0  0  0  1 V2000
   -0.5327   13.6320   -5.4121 C   0  0  0  0  0  0  0  0  0  0  0  0
   -0.0174   12.5304   -4.5342 O   0  0  0  0  0  0  0  0  0  0  0  0
    0.2152   11.1629   -5.1052 C   0  0  0  0  0  0  0  0  0  0  0  0
   -0.9514   10.3047   -5.4953 C   0  0  0  0  0  0  0  0  0  0  0  0
   -0.7188    8.9372   -6.0663 C   0  0  0  0  0  0  0  0  0  0  0  0
    0.6804    8.4281   -6.2471 C   0  0  0  0  0  0  0  0  0  0  0  0
    1.8471    9.2863   -5.8570 C   0  0  0  0  0  0  0  0  0  0  0  0
    3.2464    8.7772   -6.0378 C   0  0  0  0  0  0  0  0  0  0  0  0
    4.1387    9.0491   -7.2125 C   0  0  0  0  0  0  0  0  0  0  0  0
    5.4429    8.3468   -6.9765 C   0  0  0  0  0  0  0  0  0  0  0  0
    6.6256    8.3499   -7.8990 N   0  0  0  0  0  0  0  0  0  0  0  0
    6.4213    8.2361   -9.3807 C   0  0  0  0  0  0  0  0  0  0  0  0
    5.3682    9.0619  -10.0581 C   0  0  0  0  0  0  0  0  0  0  0  0
    7.2702    7.2966  -10.1849 C   0  0  0  0  0  0  0  0  0  0  0  0
    8.2827    6.4275   -9.4998 C   0  0  0  0  0  0  0  0  0  0  0  0
    9.1316    5.4880  -10.3040 C   0  0  0  0  0  0  0  0  0  0  0  0
    8.9680    5.4177  -11.7933 C   0  0  0  0  0  0  0  0  0  0  0  0
    7.9555    6.2869  -12.4785 C   0  0  0  0  0  0  0  0  0  0  0  0
    7.1066    7.2264  -11.6742 C   0  0  0  0  0  0  0  0  0  0  0  0
    5.3566    7.6407   -5.6558 C   0  0  0  0  0  0  0  0  0  0  0  0
    6.4380    6.8138   -5.0259 O   0  0  0  0  0  0  0  0  0  0  0  0
    3.9992    7.9067   -5.0757 N   0  0  0  0  0  0  0  0  0  0  0  0
    3.4848    7.3925   -3.7639 C   0  0  0  0  0  0  0  0  0  0  0  0
    2.0402    7.5728   -3.4021 C   0  0  0  0  0  0  0  0  0  0  0  0
    1.5259    7.0586   -2.0903 C   0  0  0  0  0  0  0  0  0  0  0  0
    2.4559    6.3642   -1.1401 C   0  0  0  0  0  0  0  0  0  0  0  0
    1.9416    5.8500    0.1718 C   0  0  0  0  0  0  0  0  0  0  0  0
    1.4272    5.3359    1.4836 F   0  0  0  0  0  0  0  0  0  0  0  0
    1.7383    7.2591    0.6443 F   0  0  0  0  0  0  0  0  0  0  0  0
    2.1448    4.4410   -0.3008 F   0  0  0  0  0  0  0  0  0  0  0  0
    3.9004    6.1839   -1.5019 C   0  0  0  0  0  0  0  0  0  0  0  0
    4.4148    6.6981   -2.8137 C   0  0  0  0  0  0  0  0  0  0  0  0
    1.6145   10.6538   -5.2860 C   0  0  0  0  0  0  0  0  0  0  0  0
  1  2  1  0  0  0  0
  2  3  1  0  0  0  0
  3  4  2  0  0  0  0
  4  5  1  0  0  0  0
  5  6  2  0  0  0  0
  6  7  1  0  0  0  0
  8  7  1  0  0  0  0
  8  9  1  0  0  0  0
  9 10  1  0  0  0  0
 10 11  1  0  0  0  0
 11 12  1  0  0  0  0
 12 13  1  0  0  0  0
 12 14  1  0  0  0  0
 14 15  2  0  0  0  0
 15 16  1  0  0  0  0
 16 17  2  0  0  0  0
 17 18  1  0  0  0  0
 18 19  2  0  0  0  0
 10 20  1  0  0  0  0
 20 21  2  0  0  0  0
 20 22  1  0  0  0  0
 22 23  1  0  0  0  0
 23 24  2  0  0  0  0
 24 25  1  0  0  0  0
 25 26  2  0  0  0  0
 26 27  1  0  0  0  0
 27 28  1  0  0  0  0
 27 29  1  0  0  0  0
 27 30  1  0  0  0  0
 26 31  1  0  0  0  0
 31 32  2  0  0  0  0
  7 33  2  0  0  0  0
 33  3  1  0  0  0  0
 22  8  1  0  0  0  0
 32 23  1  0  0  0  0
 19 14  1  0  0  0  0
M  END
> <Gold.Version>
2024.1.0

> <Gold.Id.Protein>
6Q9L|6Q9L_protein|mol2

> <Gold.PLP.Fitness>
38.6509

> <Gold.PLP.PLP>
-34.1595

> <Gold.PLP.part.hbond>
-1.8739

> <Gold.PLP.part.metal>
0.0000

> <Gold.PLP.part.buried>
-4.0313

> <Gold.PLP.part.nonpolar>
-28.8428

> <Gold.PLP.part.repulsive>
0.0227

> <Gold.PLP.ligand.clash>
0.0003

> <Gold.PLP.ligand.torsion>
2.5307

> <Gold.PLP.Chemscore.Hbond>
2.0000

> <Gold.PLP.Chemscore.CHOScore>
0.0000

> <Gold.PLP.Chemscore.Metal>
0.0000

> <Gold.Chemscore.Hbonds>
donor molecule, donor type, donor heavy atom, donor atom, acceptor molecule, acceptor atom, score
      P1  H   464  3252       L1    11  1.00
      P1  H   607  2483       L1    21  1.00

> <Gold.PLP.Chemscore.Internal.Correction>
3.5531

> <Gold.Protein.RotatedTorsions>
[ 1932    1    2    3 ] final   27.21 input   60.00 | X-H torsion
[ 1726  314  313  311 ] final  -35.30 input -140.00 | X-H torsion
[ 1619  347  346  344 ] final -178.33 input  180.00 | X-H torsion
[ 1600  369  368  365 ] final   37.18 input  -80.00 | X-H torsion
[ 2112  410  409  407 ] final  127.50 input   -0.00 | X-H torsion
[ 2483  607  606  603 ] final  177.48 input  170.00 | X-H torsion
[ 2515  623  622  621 ] final  -80.53 input   70.00 | X-H torsion

> <Gold.Protein.ActiveResidues>
 GLN18   LEU54   PHE55   TYR56   LEU57   GLY58   GLN59   TYR60   ILE61   MET62  
 THR63   TYR67   GLN72   HIS73   ILE74   VAL75   PHE91   SER92   VAL93   LYS94  
 GLU95   HIS96   ILE99  

> <Gold.Protein.RotatedAtoms>
   24.4847   15.0782    3.2878 H   0  0  0  0  0  0  0  0  0  0  0  0  # atno 1600 bound_to 369 
   25.1598    7.1416    3.7149 H   0  0  0  0  0  0  0  0  0  0  0  0  # atno 1619 bound_to 347 
   21.5304   17.9894   15.2479 H   0  0  0  0  0  0  0  0  0  0  0  0  # atno 1726 bound_to 314 
    1.2413   10.6452    8.5953 H   0  0  0  0  0  0  0  0  0  0  0  0  # atno 1932 bound_to 1   
   -0.2614   10.4541    7.9222 H   0  0  0  0  0  0  0  0  0  0  0  0  # atno 1933 bound_to 1   
   18.8685   18.4056   -3.0807 H   0  0  0  0  0  0  0  0  0  0  0  0  # atno 2112 bound_to 410 
    7.5928    7.1942   -3.3668 H   0  0  0  0  0  0  0  0  0  0  0  0  # atno 2483 bound_to 607 
    5.0650   11.2890   -5.9959 H   0  0  0  0  0  0  0  0  0  0  0  0  # atno 2515 bound_to 623 
    4.8465   12.8833   -5.5983 H   0  0  0  0  0  0  0  0  0  0  0  0  # atno 2516 bound_to 623 
    3.8496   11.7250   -4.9566 H   0  0  0  0  0  0  0  0  0  0  0  0  # atno 2517 bound_to 623 
    1.0139   10.9082    6.9872 LP  0  0  0  0  0  0  0  0  0  0  0  0  # atno 3256 bound_to 1   
   20.4615   17.4483   16.3490 LP  0  0  0  0  0  0  0  0  0  0  0  0  # atno 3267 bound_to 314 
   19.9837   18.4910   15.1866 LP  0  0  0  0  0  0  0  0  0  0  0  0  # atno 3268 bound_to 314 
   25.8013    7.0825    5.2093 LP  0  0  0  0  0  0  0  0  0  0  0  0  # atno 3279 bound_to 347 
   26.3983    8.1236    4.1019 LP  0  0  0  0  0  0  0  0  0  0  0  0  # atno 3280 bound_to 347 
   23.4080   15.6915    4.3427 LP  0  0  0  0  0  0  0  0  0  0  0  0  # atno 3287 bound_to 369 
   25.0079   15.9143    4.5821 LP  0  0  0  0  0  0  0  0  0  0  0  0  # atno 3288 bound_to 369 
   18.7279   18.4820   -4.7001 LP  0  0  0  0  0  0  0  0  0  0  0  0  # atno 3291 bound_to 410 
   20.1055   17.9254   -4.0226 LP  0  0  0  0  0  0  0  0  0  0  0  0  # atno 3292 bound_to 410 
    8.9483    8.0939   -3.3303 LP  0  0  0  0  0  0  0  0  0  0  0  0  # atno 3308 bound_to 607 
    8.2840    7.5563   -1.9387 LP  0  0  0  0  0  0  0  0  0  0  0  0  # atno 3309 bound_to 607 

$$$$
