Atorvastatin|atorvastatin|sdf|1|dock2
  -GOLD-   6242416 73D 1   1.00000     0.00000

 41 44  0  0  0  0  0  0  0  0  1 V2000
   11.1025   16.2416   -3.3612 C   0  0  0  0  0  0  0  0  0  0  0  0
    9.9324   15.6742   -2.6136 C   0  0  0  0  0  0  0  0  0  0  0  0
   10.1104   15.1717   -1.2115 C   0  0  0  0  0  0  0  0  0  0  0  0
    8.5843   15.6093   -3.2681 C   0  0  0  0  0  0  0  0  0  0  0  0
    8.2926   15.8777   -4.7147 C   0  0  0  0  0  0  0  0  0  0  0  0
    9.2979   16.2582   -5.7610 C   0  0  0  0  0  0  0  0  0  0  0  0
   10.2314   15.2233   -6.3156 O   0  0  0  0  0  0  0  0  0  0  0  0
    9.3697   17.6735   -6.2526 N   0  0  0  0  0  0  0  0  0  0  0  0
   10.0230   17.9783   -7.5680 C   0  0  0  0  0  0  0  0  0  0  0  0
    9.2400   17.8529   -8.8412 C   0  0  0  0  0  0  0  0  0  0  0  0
    9.8933   18.1577  -10.1566 C   0  0  0  0  0  0  0  0  0  0  0  0
   11.3296   18.5880  -10.1988 C   0  0  0  0  0  0  0  0  0  0  0  0
   12.1126   18.7135   -8.9256 C   0  0  0  0  0  0  0  0  0  0  0  0
   11.4594   18.4086   -7.6102 C   0  0  0  0  0  0  0  0  0  0  0  0
    6.8191   15.6989   -4.9315 C   0  0  0  0  0  0  0  0  0  0  0  0
    6.0924   15.8691   -6.2326 C   0  0  0  0  0  0  0  0  0  0  0  0
    5.9625   17.2316   -6.8465 C   0  0  0  0  0  0  0  0  0  0  0  0
    5.2357   17.4017   -8.1476 C   0  0  0  0  0  0  0  0  0  0  0  0
    4.6388   16.2095   -8.8348 C   0  0  0  0  0  0  0  0  0  0  0  0
    4.7687   14.8471   -8.2209 C   0  0  0  0  0  0  0  0  0  0  0  0
    5.4954   14.6769   -6.9198 C   0  0  0  0  0  0  0  0  0  0  0  0
    6.2001   15.3199   -3.6188 C   0  0  0  0  0  0  0  0  0  0  0  0
    4.7457   15.0447   -3.3767 C   0  0  0  0  0  0  0  0  0  0  0  0
    4.2975   14.4838   -2.0597 C   0  0  0  0  0  0  0  0  0  0  0  0
    2.8430   14.2086   -1.8176 C   0  0  0  0  0  0  0  0  0  0  0  0
    1.8366   14.4942   -2.8926 C   0  0  0  0  0  0  0  0  0  0  0  0
    0.3821   14.2189   -2.6505 F   0  0  0  0  0  0  0  0  0  0  0  0
    2.2847   15.0550   -4.2097 C   0  0  0  0  0  0  0  0  0  0  0  0
    3.7392   15.3303   -4.4517 C   0  0  0  0  0  0  0  0  0  0  0  0
    7.2910   15.2645   -2.5907 N   0  0  0  0  0  0  0  0  0  0  0  0
    7.1189   14.9242   -1.1400 C   0  0  0  0  0  0  0  0  0  0  0  0
    7.5378   13.5768   -0.6310 C   0  0  0  0  0  0  0  0  0  0  0  0
    6.7826   12.9317    0.4930 C   0  0  0  0  0  0  0  0  0  0  0  0
    7.5164   12.4429    1.7065 O   0  0  0  0  0  0  0  0  0  0  0  0
    5.2934   12.7753    0.4035 C   0  0  0  0  0  0  0  0  0  0  0  0
    4.4055   13.4704    1.3927 C   0  0  0  0  0  0  0  0  0  0  0  0
    4.9885   14.0441    2.6501 O   0  0  0  0  0  0  0  0  0  0  0  0
    2.9347   13.5917    1.1246 C   0  0  0  0  0  0  0  0  0  0  0  0
    2.0166   12.4507    1.4492 C   0  0  0  0  0  0  0  0  0  0  0  0
    1.4099   11.6383    0.3439 O   0  0  0  0  0  0  0  0  0  0  0  0
    1.7054   12.1220    2.8793 O   0  0  0  0  0  0  0  0  0  0  0  0
  1  2  1  0  0  0  0
  2  3  1  0  0  0  0
  2  4  1  0  0  0  0
  4  5  2  0  0  0  0
  5  6  1  0  0  0  0
  6  7  2  0  0  0  0
  6  8  1  0  0  0  0
  8  9  1  0  0  0  0
  9 10  2  0  0  0  0
 10 11  1  0  0  0  0
 11 12  2  0  0  0  0
 12 13  1  0  0  0  0
 13 14  2  0  0  0  0
  5 15  1  0  0  0  0
 15 16  1  0  0  0  0
 16 17  2  0  0  0  0
 17 18  1  0  0  0  0
 18 19  2  0  0  0  0
 19 20  1  0  0  0  0
 20 21  2  0  0  0  0
 15 22  2  0  0  0  0
 22 23  1  0  0  0  0
 23 24  2  0  0  0  0
 24 25  1  0  0  0  0
 25 26  2  0  0  0  0
 26 27  1  0  0  0  0
 26 28  1  0  0  0  0
 28 29  2  0  0  0  0
 22 30  1  0  0  0  0
 30 31  1  0  0  0  0
 31 32  1  0  0  0  0
 32 33  1  0  0  0  0
 33 34  1  0  0  0  0
 33 35  1  0  0  0  0
 35 36  1  0  0  0  0
 36 37  1  0  0  0  0
 36 38  1  0  0  0  0
 38 39  1  0  0  0  0
 39 40  2  0  0  0  0
 39 41  1  0  0  0  0
 30  4  1  0  0  0  0
 14  9  1  0  0  0  0
 21 16  1  0  0  0  0
 29 23  1  0  0  0  0
M  END
> <Gold.Version>
2024.1.0

> <Gold.Id.Protein>
6Q9L|6Q9L_protein|mol2

> <Gold.PLP.Fitness>
46.8447

> <Gold.PLP.PLP>
-42.4235

> <Gold.PLP.part.hbond>
-3.1193

> <Gold.PLP.part.metal>
0.0000

> <Gold.PLP.part.buried>
-5.7482

> <Gold.PLP.part.nonpolar>
-36.3177

> <Gold.PLP.part.repulsive>
1.0677

> <Gold.PLP.ligand.clash>
0.0040

> <Gold.PLP.ligand.torsion>
4.7021

> <Gold.PLP.Chemscore.Hbond>
2.3578

> <Gold.PLP.Chemscore.CHOScore>
0.0000

> <Gold.PLP.Chemscore.Metal>
0.0000

> <Gold.Chemscore.Hbonds>
donor molecule, donor type, donor heavy atom, donor atom, acceptor molecule, acceptor atom, score
      P1  H     9  1929       L1    41  1.00
      P1  H   446  2149       L1     7  0.46
      P1  H   642  3253       L1    34  0.89

> <Gold.PLP.Chemscore.Internal.Correction>
6.7561

> <Gold.Protein.RotatedTorsions>
[ 1932    1    2    3 ] final -143.13 input   60.00 | X-H torsion
[ 1726  314  313  311 ] final   69.21 input -140.00 | X-H torsion
[ 1619  347  346  344 ] final -108.07 input  180.00 | X-H torsion
[ 1600  369  368  365 ] final   52.81 input  -80.00 | X-H torsion
[ 2112  410  409  407 ] final -145.52 input   -0.00 | X-H torsion
[ 2483  607  606  603 ] final -176.90 input  170.00 | X-H torsion
[ 2515  623  622  621 ] final   55.03 input   70.00 | X-H torsion

> <Gold.Protein.ActiveResidues>
 GLN18   LEU54   PHE55   TYR56   LEU57   GLY58   GLN59   TYR60   ILE61   MET62  
 THR63   TYR67   GLN72   HIS73   ILE74   VAL75   PHE91   SER92   VAL93   LYS94  
 GLU95   HIS96   ILE99  

> <Gold.Protein.RotatedAtoms>
   24.7249   15.1304    3.3536 H   0  0  0  0  0  0  0  0  0  0  0  0  # atno 1600 bound_to 369 
   25.8954    7.9074    3.5320 H   0  0  0  0  0  0  0  0  0  0  0  0  # atno 1619 bound_to 347 
   20.1770   18.5502   15.0340 H   0  0  0  0  0  0  0  0  0  0  0  0  # atno 1726 bound_to 314 
   -0.0251   10.6536    7.1693 H   0  0  0  0  0  0  0  0  0  0  0  0  # atno 1932 bound_to 1   
    1.5586   10.9131    7.5841 H   0  0  0  0  0  0  0  0  0  0  0  0  # atno 1933 bound_to 1   
   20.0021   17.9584   -3.4998 H   0  0  0  0  0  0  0  0  0  0  0  0  # atno 2112 bound_to 410 
    7.5588    7.1660   -3.2863 H   0  0  0  0  0  0  0  0  0  0  0  0  # atno 2483 bound_to 607 
    3.8428   11.9807   -4.9155 H   0  0  0  0  0  0  0  0  0  0  0  0  # atno 2515 bound_to 623 
    4.8930   11.1344   -5.8790 H   0  0  0  0  0  0  0  0  0  0  0  0  # atno 2516 bound_to 623 
    5.0253   12.7821   -5.7562 H   0  0  0  0  0  0  0  0  0  0  0  0  # atno 2517 bound_to 623 
    0.4685   10.4477    8.7252 LP  0  0  0  0  0  0  0  0  0  0  0  0  # atno 3256 bound_to 1   
   21.5790   17.8300   15.4387 LP  0  0  0  0  0  0  0  0  0  0  0  0  # atno 3267 bound_to 314 
   20.2292   17.5446   16.3123 LP  0  0  0  0  0  0  0  0  0  0  0  0  # atno 3268 bound_to 314 
   25.1162    6.7888    4.4207 LP  0  0  0  0  0  0  0  0  0  0  0  0  # atno 3279 bound_to 347 
   26.3426    7.6461    5.0747 LP  0  0  0  0  0  0  0  0  0  0  0  0  # atno 3280 bound_to 347 
   23.3599   15.5558    4.1307 LP  0  0  0  0  0  0  0  0  0  0  0  0  # atno 3287 bound_to 369 
   24.8142   15.9974    4.7278 LP  0  0  0  0  0  0  0  0  0  0  0  0  # atno 3288 bound_to 369 
   18.4926   18.5617   -3.4264 LP  0  0  0  0  0  0  0  0  0  0  0  0  # atno 3291 bound_to 410 
   19.1992   18.2961   -4.8744 LP  0  0  0  0  0  0  0  0  0  0  0  0  # atno 3292 bound_to 410 
    8.9056    8.0711   -3.4091 LP  0  0  0  0  0  0  0  0  0  0  0  0  # atno 3308 bound_to 607 
    8.3610    7.6075   -1.9410 LP  0  0  0  0  0  0  0  0  0  0  0  0  # atno 3309 bound_to 607 

$$$$
