Atorvastatin|atorvastatin|sdf|1|dock9
  -GOLD-   6242416 73D 1   1.00000     0.00000

 41 44  0  0  0  0  0  0  0  0  1 V2000
    8.1916   13.8605   -1.8377 C   0  0  0  0  0  0  0  0  0  0  0  0
    8.3221   14.9649   -2.8443 C   0  0  0  0  0  0  0  0  0  0  0  0
    9.6798   15.3886   -3.3210 C   0  0  0  0  0  0  0  0  0  0  0  0
    7.0950   15.6456   -3.3742 C   0  0  0  0  0  0  0  0  0  0  0  0
    6.6011   15.5963   -4.7897 C   0  0  0  0  0  0  0  0  0  0  0  0
    7.2477   14.8576   -5.9239 C   0  0  0  0  0  0  0  0  0  0  0  0
    6.4125   14.0209   -6.8471 O   0  0  0  0  0  0  0  0  0  0  0  0
    8.7296   14.9556   -6.1349 N   0  0  0  0  0  0  0  0  0  0  0  0
    9.2866   15.9789   -7.0797 C   0  0  0  0  0  0  0  0  0  0  0  0
   10.4796   16.7964   -6.6818 C   0  0  0  0  0  0  0  0  0  0  0  0
   11.0366   17.8196   -7.6266 C   0  0  0  0  0  0  0  0  0  0  0  0
   10.4005   18.0254   -8.9694 C   0  0  0  0  0  0  0  0  0  0  0  0
    9.2074   17.2079   -9.3673 C   0  0  0  0  0  0  0  0  0  0  0  0
    8.6505   16.1847   -8.4225 C   0  0  0  0  0  0  0  0  0  0  0  0
    5.3472   16.4153   -4.8720 C   0  0  0  0  0  0  0  0  0  0  0  0
    4.5197   16.6395   -6.1028 C   0  0  0  0  0  0  0  0  0  0  0  0
    5.1060   16.3784   -7.4586 C   0  0  0  0  0  0  0  0  0  0  0  0
    4.2785   16.6026   -8.6894 C   0  0  0  0  0  0  0  0  0  0  0  0
    2.8646   17.0878   -8.5645 C   0  0  0  0  0  0  0  0  0  0  0  0
    2.2783   17.3489   -7.2088 C   0  0  0  0  0  0  0  0  0  0  0  0
    3.1058   17.1247   -5.9780 C   0  0  0  0  0  0  0  0  0  0  0  0
    5.0660   16.9709   -3.5073 C   0  0  0  0  0  0  0  0  0  0  0  0
    3.9080   17.8480   -3.1339 C   0  0  0  0  0  0  0  0  0  0  0  0
    3.6941   19.1511   -3.8455 C   0  0  0  0  0  0  0  0  0  0  0  0
    2.5361   20.0283   -3.4721 C   0  0  0  0  0  0  0  0  0  0  0  0
    1.5920   19.6025   -2.3871 C   0  0  0  0  0  0  0  0  0  0  0  0
    0.4339   20.4797   -2.0136 F   0  0  0  0  0  0  0  0  0  0  0  0
    1.8058   18.2994   -1.6754 C   0  0  0  0  0  0  0  0  0  0  0  0
    2.9639   17.4223   -2.0489 C   0  0  0  0  0  0  0  0  0  0  0  0
    6.1462   16.4951   -2.5816 N   0  0  0  0  0  0  0  0  0  0  0  0
    6.2580   16.8131   -1.1200 C   0  0  0  0  0  0  0  0  0  0  0  0
    6.2332   15.7065   -0.1077 C   0  0  0  0  0  0  0  0  0  0  0  0
    6.5058   16.0052    1.3368 C   0  0  0  0  0  0  0  0  0  0  0  0
    6.7677   17.4158    1.7745 O   0  0  0  0  0  0  0  0  0  0  0  0
    6.5165   14.8932    2.3435 C   0  0  0  0  0  0  0  0  0  0  0  0
    5.6253   13.7016    2.1542 C   0  0  0  0  0  0  0  0  0  0  0  0
    6.2180   12.3715    1.7940 O   0  0  0  0  0  0  0  0  0  0  0  0
    4.1415   13.8400    2.3253 C   0  0  0  0  0  0  0  0  0  0  0  0
    3.2155   12.8687    1.6551 C   0  0  0  0  0  0  0  0  0  0  0  0
    2.1412   12.1868    2.4491 O   0  0  0  0  0  0  0  0  0  0  0  0
    3.3641   12.5794    0.1908 O   0  0  0  0  0  0  0  0  0  0  0  0
  1  2  1  0  0  0  0
  2  3  1  0  0  0  0
  2  4  1  0  0  0  0
  4  5  2  0  0  0  0
  5  6  1  0  0  0  0
  6  7  2  0  0  0  0
  6  8  1  0  0  0  0
  8  9  1  0  0  0  0
  9 10  2  0  0  0  0
 10 11  1  0  0  0  0
 11 12  2  0  0  0  0
 12 13  1  0  0  0  0
 13 14  2  0  0  0  0
  5 15  1  0  0  0  0
 15 16  1  0  0  0  0
 16 17  2  0  0  0  0
 17 18  1  0  0  0  0
 18 19  2  0  0  0  0
 19 20  1  0  0  0  0
 20 21  2  0  0  0  0
 15 22  2  0  0  0  0
 22 23  1  0  0  0  0
 23 24  2  0  0  0  0
 24 25  1  0  0  0  0
 25 26  2  0  0  0  0
 26 27  1  0  0  0  0
 26 28  1  0  0  0  0
 28 29  2  0  0  0  0
 22 30  1  0  0  0  0
 30 31  1  0  0  0  0
 31 32  1  0  0  0  0
 32 33  1  0  0  0  0
 33 34  1  0  0  0  0
 33 35  1  0  0  0  0
 35 36  1  0  0  0  0
 36 37  1  0  0  0  0
 36 38  1  0  0  0  0
 38 39  1  0  0  0  0
 39 40  2  0  0  0  0
 39 41  1  0  0  0  0
 30  4  1  0  0  0  0
 14  9  1  0  0  0  0
 21 16  1  0  0  0  0
 29 23  1  0  0  0  0
M  END
> <Gold.Version>
2024.1.0

> <Gold.Id.Protein>
6Q9L|6Q9L_protein|mol2

> <Gold.PLP.Fitness>
34.9823

> <Gold.PLP.PLP>
-30.5288

> <Gold.PLP.part.hbond>
-3.0000

> <Gold.PLP.part.metal>
0.0000

> <Gold.PLP.part.buried>
-6.4961

> <Gold.PLP.part.nonpolar>
-22.9496

> <Gold.PLP.part.repulsive>
0.8699

> <Gold.PLP.ligand.clash>
0.0008

> <Gold.PLP.ligand.torsion>
5.2608

> <Gold.PLP.Chemscore.Hbond>
2.9920

> <Gold.PLP.Chemscore.CHOScore>
0.0000

> <Gold.PLP.Chemscore.Metal>
0.0000

> <Gold.Chemscore.Hbonds>
donor molecule, donor type, donor heavy atom, donor atom, acceptor molecule, acceptor atom, score
      P1  H     9  1929       L1    40  1.00
      P1  H   623  2515       L1     7  1.00
      P1  H   642  3253       L1    37  0.99

> <Gold.PLP.Chemscore.Internal.Correction>
5.9999

> <Gold.Protein.RotatedTorsions>
[ 1932    1    2    3 ] final -165.89 input   60.00 | X-H torsion
[ 1726  314  313  311 ] final  168.89 input -140.00 | X-H torsion
[ 1619  347  346  344 ] final   33.85 input  180.00 | X-H torsion
[ 1600  369  368  365 ] final  -71.63 input  -80.00 | X-H torsion
[ 2112  410  409  407 ] final  -72.20 input   -0.00 | X-H torsion
[ 2483  607  606  603 ] final  103.55 input  170.00 | X-H torsion
[ 2515  623  622  621 ] final -168.18 input   70.00 | X-H torsion

> <Gold.Protein.ActiveResidues>
 GLN18   LEU54   PHE55   TYR56   LEU57   GLY58   GLN59   TYR60   ILE61   MET62  
 THR63   TYR67   GLN72   HIS73   ILE74   VAL75   PHE91   SER92   VAL93   LYS94  
 GLU95   HIS96   ILE99  

> <Gold.Protein.RotatedAtoms>
   23.3730   15.5964    4.1900 H   0  0  0  0  0  0  0  0  0  0  0  0  # atno 1600 bound_to 369 
   26.1300    7.3924    5.2090 H   0  0  0  0  0  0  0  0  0  0  0  0  # atno 1619 bound_to 347 
   19.9788   17.7171   16.1804 H   0  0  0  0  0  0  0  0  0  0  0  0  # atno 1726 bound_to 314 
    0.2731   10.7587    6.9627 H   0  0  0  0  0  0  0  0  0  0  0  0  # atno 1932 bound_to 1   
    1.5984   10.8486    7.9542 H   0  0  0  0  0  0  0  0  0  0  0  0  # atno 1933 bound_to 1   
   19.8416   18.0345   -4.6035 H   0  0  0  0  0  0  0  0  0  0  0  0  # atno 2112 bound_to 410 
    8.4517    7.7929   -3.7812 H   0  0  0  0  0  0  0  0  0  0  0  0  # atno 2483 bound_to 607 
    5.1818   12.6062   -5.9066 H   0  0  0  0  0  0  0  0  0  0  0  0  # atno 2515 bound_to 623 
    3.8965   12.2548   -4.9207 H   0  0  0  0  0  0  0  0  0  0  0  0  # atno 2516 bound_to 623 
    4.6828   11.0363   -5.7233 H   0  0  0  0  0  0  0  0  0  0  0  0  # atno 2517 bound_to 623 
    0.1354   10.4077    8.5642 LP  0  0  0  0  0  0  0  0  0  0  0  0  # atno 3256 bound_to 1   
   20.4750   18.5772   14.8913 LP  0  0  0  0  0  0  0  0  0  0  0  0  # atno 3267 bound_to 314 
   21.5329   17.6364   15.7051 LP  0  0  0  0  0  0  0  0  0  0  0  0  # atno 3268 bound_to 314 
   26.1538    8.0604    3.7254 LP  0  0  0  0  0  0  0  0  0  0  0  0  # atno 3279 bound_to 347 
   25.0687    6.8931    4.0811 LP  0  0  0  0  0  0  0  0  0  0  0  0  # atno 3280 bound_to 347 
   24.8738   15.9769    4.6910 LP  0  0  0  0  0  0  0  0  0  0  0  0  # atno 3287 bound_to 369 
   24.6618   15.1071    3.3253 LP  0  0  0  0  0  0  0  0  0  0  0  0  # atno 3288 bound_to 369 
   19.4682   18.1684   -3.0253 LP  0  0  0  0  0  0  0  0  0  0  0  0  # atno 3291 bound_to 410 
   18.3853   18.6126   -4.1639 LP  0  0  0  0  0  0  0  0  0  0  0  0  # atno 3292 bound_to 410 
    8.8468    7.9486   -2.2103 LP  0  0  0  0  0  0  0  0  0  0  0  0  # atno 3308 bound_to 607 
    7.5207    7.0987   -2.6413 LP  0  0  0  0  0  0  0  0  0  0  0  0  # atno 3309 bound_to 607 

$$$$
