#       Name:                MEPPEP
#       Creating user name   noviasari
#       Creation time:       Wed Jul 24 16:07:56 2024


#       File generated by GOLD software.
#

@<TRIPOS>MOLECULE
MEPPEP
    38    41     1
SMALL
NO_CHARGES


@<TRIPOS>ATOM
      1 ****         4.4591  -4.0733   0.0000 C.3            1 S1                 0.0000
      2 ****         3.7091  -2.7743   0.0000 O.3            1 S1                 0.0000
      3 ****         2.2091  -2.7743   0.0000 C.2            1 S1                 0.0000
      4 ****         1.4591  -4.0733   0.0000 C.3            1 S1                 0.0000
      5 ****        -0.0409  -4.0733   0.0000 C.3            1 S1                 0.0000
      6 ****        -0.7909  -2.7743   0.0000 C.3            1 S1                 0.0000
      7 ****        -0.0409  -1.4753   0.0000 C.2            1 S1                 0.0000
      8 ****        -0.7909  -0.1762   0.0000 C.ar           1 S1                 0.0000
      9 ****        -2.2827  -0.0194   0.0000 C.3            1 S1                 0.0000
     10 ****        -2.5946   1.4478   0.0000 C.ar           1 S1                 0.0000
     11 ****        -3.9649   2.0579   0.0000 N.pl3          1 S1                 0.0000
     12 ****        -5.1784   1.1762   0.0000 C.2            1 S1                 0.0000
     13 ****        -6.5487   1.7863   0.0000 C.3            1 S1                 0.0000
     14 ****        -5.0216  -0.3156   0.0000 C.2            1 S1                 0.0000
     15 ****        -3.6513  -0.9257   0.0000 C.3            1 S1                 0.0000
     16 ****        -3.4945  -2.4175   0.0000 C.3            1 S1                 0.0000
     17 ****        -4.7080  -3.2991   0.0000 C.3            1 S1                 0.0000
     18 ****        -6.0783  -2.6890   0.0000 C.3            1 S1                 0.0000
     19 ****        -6.2351  -1.1972   0.0000 C.3            1 S1                 0.0000
     20 ****        -1.2955   2.1978   0.0000 C.2            1 S1                 0.0000
     21 ****        -1.1387   3.6896   0.0000 O.2            1 S1                 0.0000
     22 ****        -0.1808   1.1941   0.0000 N.am           1 S1                 0.0000
     23 ****         1.2864   1.5060   0.0000 C.2            1 S1                 0.0000
     24 ****         2.2901   0.3912   0.0000 C.3            1 S1                 0.0000
     25 ****         3.7573   0.7031   0.0000 C.3            1 S1                 0.0000
     26 ****         4.2209   2.1297   0.0000 C.2            1 S1                 0.0000
     27 ****         5.6881   2.4416   0.0000 C.3            1 S1                 0.0000
     28 ****         7.1553   2.7534   0.0000 F              1 S1                 0.0000
     29 ****         6.0000   0.9743   0.0000 F              1 S1                 0.0000
     30 ****         5.3762   3.9088   0.0000 F              1 S1                 0.0000
     31 ****         3.2172   3.2444   0.0000 C.3            1 S1                 0.0000
     32 ****         1.7500   2.9325   0.0000 C.3            1 S1                 0.0000
     33 ****         1.4591  -1.4753   0.0000 C.3            1 S1                 0.0000
     34 ****         3.9978  -2.2743  -0.8165 LP             1 S1                 0.0000
     35 ****         3.9978  -2.2743   0.8165 LP             1 S1                 0.0000
     36 ****        -4.0694   3.0524   0.0000 LP             1 S1                 0.0000
     37 ****        -1.9477   4.2773   0.0000 LP             1 S1                 0.0000
     38 ****        -0.2252   4.0963  -0.0000 LP             1 S1                 0.0000
@<TRIPOS>BOND
    1    1    2 1     
    2    2    3 1     
    3    3    4 2     
    4    4    5 1     
    5    5    6 2     
    6    6    7 1     
    7    8    7 1     
    8    8    9 1     
    9    9   10 1     
   10   10   11 1     
   11   11   12 1     
   12   12   13 1     
   13   12   14 1     
   14   14   15 2     
   15   15   16 1     
   16   16   17 2     
   17   17   18 1     
   18   18   19 2     
   19   10   20 1     
   20   20   21 2     
   21   20   22 am    
   22   22   23 1     
   23   23   24 2     
   24   24   25 1     
   25   25   26 2     
   26   26   27 1     
   27   27   28 1     
   28   27   29 1     
   29   27   30 1     
   30   26   31 1     
   31   31   32 2     
   32    7   33 2     
   33   33    3 1     
   34   22    8 1     
   35   32   23 1     
   36   19   14 1     
   37    2   34 1     
   38    2   35 1     
   39   11   36 1     
   40   21   37 1     
   41   21   38 1     
@<TRIPOS>SUBSTRUCTURE
      1 S1             1
@<TRIPOS>SET
LONE_PAIRS      STATIC     ATOMS    <user>   **** ""
5 34 35 36 37 38
ATOM$BLUE        STATIC     ATOMS    COLORGROUP SYSTEM
5 34 35 36 37 38
