Atorvastatin|atorvastatin|sdf|1|dock7
  -GOLD-   6242416 73D 1   1.00000     0.00000

 41 44  0  0  0  0  0  0  0  0  1 V2000
    7.1070   18.3582    4.3739 C   0  0  0  0  0  0  0  0  0  0  0  0
    8.0959   17.3008    3.9813 C   0  0  0  0  0  0  0  0  0  0  0  0
    8.6417   17.2659    2.5846 C   0  0  0  0  0  0  0  0  0  0  0  0
    8.5390   16.2785    4.9855 C   0  0  0  0  0  0  0  0  0  0  0  0
    9.1232   16.5654    6.3370 C   0  0  0  0  0  0  0  0  0  0  0  0
    9.3669   17.9252    6.9214 C   0  0  0  0  0  0  0  0  0  0  0  0
    9.4572   18.0970    8.4088 O   0  0  0  0  0  0  0  0  0  0  0  0
    9.5203   19.1131    6.0185 N   0  0  0  0  0  0  0  0  0  0  0  0
   10.5414   20.1664    6.3317 C   0  0  0  0  0  0  0  0  0  0  0  0
   10.9213   21.1761    5.2896 C   0  0  0  0  0  0  0  0  0  0  0  0
   11.9424   22.2293    5.6028 C   0  0  0  0  0  0  0  0  0  0  0  0
   12.5835   22.2728    6.9582 C   0  0  0  0  0  0  0  0  0  0  0  0
   12.2036   21.2631    8.0004 C   0  0  0  0  0  0  0  0  0  0  0  0
   11.1825   20.2099    7.6871 C   0  0  0  0  0  0  0  0  0  0  0  0
    9.4209   15.2539    7.0013 C   0  0  0  0  0  0  0  0  0  0  0  0
   10.0146   15.0720    8.3667 C   0  0  0  0  0  0  0  0  0  0  0  0
   11.2066   15.8830    8.7804 C   0  0  0  0  0  0  0  0  0  0  0  0
   11.8002   15.7010   10.1459 C   0  0  0  0  0  0  0  0  0  0  0  0
   11.2019   14.7079   11.0976 C   0  0  0  0  0  0  0  0  0  0  0  0
   10.0099   13.8969   10.6839 C   0  0  0  0  0  0  0  0  0  0  0  0
    9.4162   14.0789    9.3184 C   0  0  0  0  0  0  0  0  0  0  0  0
    9.0207   14.1563    6.0604 C   0  0  0  0  0  0  0  0  0  0  0  0
    9.1439   12.6842    6.3198 C   0  0  0  0  0  0  0  0  0  0  0  0
    8.3280   12.0424    7.4027 C   0  0  0  0  0  0  0  0  0  0  0  0
    8.4512   10.5703    7.6621 C   0  0  0  0  0  0  0  0  0  0  0  0
    9.3904    9.7396    6.8386 C   0  0  0  0  0  0  0  0  0  0  0  0
    9.5136    8.2674    7.0980 F   0  0  0  0  0  0  0  0  0  0  0  0
   10.2063   10.3813    5.7557 C   0  0  0  0  0  0  0  0  0  0  0  0
   10.0830   11.8535    5.4964 C   0  0  0  0  0  0  0  0  0  0  0  0
    8.4756   14.7895    4.8146 N   0  0  0  0  0  0  0  0  0  0  0  0
    7.9580   14.0616    3.6095 C   0  0  0  0  0  0  0  0  0  0  0  0
    6.6639   14.4817    2.9780 C   0  0  0  0  0  0  0  0  0  0  0  0
    5.9021   13.5184    2.1169 C   0  0  0  0  0  0  0  0  0  0  0  0
    6.5374   12.2274    1.6927 O   0  0  0  0  0  0  0  0  0  0  0  0
    4.5051   13.8460    1.6798 C   0  0  0  0  0  0  0  0  0  0  0  0
    3.5649   12.7455    1.2860 C   0  0  0  0  0  0  0  0  0  0  0  0
    2.4259   12.3736    2.1883 O   0  0  0  0  0  0  0  0  0  0  0  0
    3.7638   12.0172   -0.0102 C   0  0  0  0  0  0  0  0  0  0  0  0
    3.3428   12.6548   -1.3010 C   0  0  0  0  0  0  0  0  0  0  0  0
    2.3033   11.9965   -2.1587 O   0  0  0  0  0  0  0  0  0  0  0  0
    3.9615   13.9509   -1.7339 O   0  0  0  0  0  0  0  0  0  0  0  0
  1  2  1  0  0  0  0
  2  3  1  0  0  0  0
  2  4  1  0  0  0  0
  4  5  2  0  0  0  0
  5  6  1  0  0  0  0
  6  7  2  0  0  0  0
  6  8  1  0  0  0  0
  8  9  1  0  0  0  0
  9 10  2  0  0  0  0
 10 11  1  0  0  0  0
 11 12  2  0  0  0  0
 12 13  1  0  0  0  0
 13 14  2  0  0  0  0
  5 15  1  0  0  0  0
 15 16  1  0  0  0  0
 16 17  2  0  0  0  0
 17 18  1  0  0  0  0
 18 19  2  0  0  0  0
 19 20  1  0  0  0  0
 20 21  2  0  0  0  0
 15 22  2  0  0  0  0
 22 23  1  0  0  0  0
 23 24  2  0  0  0  0
 24 25  1  0  0  0  0
 25 26  2  0  0  0  0
 26 27  1  0  0  0  0
 26 28  1  0  0  0  0
 28 29  2  0  0  0  0
 22 30  1  0  0  0  0
 30 31  1  0  0  0  0
 31 32  1  0  0  0  0
 32 33  1  0  0  0  0
 33 34  1  0  0  0  0
 33 35  1  0  0  0  0
 35 36  1  0  0  0  0
 36 37  1  0  0  0  0
 36 38  1  0  0  0  0
 38 39  1  0  0  0  0
 39 40  2  0  0  0  0
 39 41  1  0  0  0  0
 30  4  1  0  0  0  0
 14  9  1  0  0  0  0
 21 16  1  0  0  0  0
 29 23  1  0  0  0  0
M  END
> <Gold.Version>
2024.1.0

> <Gold.Id.Protein>
6Q9L|6Q9L_protein|mol2

> <Gold.PLP.Fitness>
50.0745

> <Gold.PLP.PLP>
-47.4460

> <Gold.PLP.part.hbond>
-2.0000

> <Gold.PLP.part.metal>
0.0000

> <Gold.PLP.part.buried>
-1.3338

> <Gold.PLP.part.nonpolar>
-45.2285

> <Gold.PLP.part.repulsive>
0.1209

> <Gold.PLP.ligand.clash>
0.0000

> <Gold.PLP.ligand.torsion>
4.6737

> <Gold.PLP.Chemscore.Hbond>
1.9920

> <Gold.PLP.Chemscore.CHOScore>
0.0000

> <Gold.PLP.Chemscore.Metal>
0.0000

> <Gold.Chemscore.Hbonds>
donor molecule, donor type, donor heavy atom, donor atom, acceptor molecule, acceptor atom, score
      P1  H     9  1929       L1    37  0.99
      P1  H   642  3253       L1    34  1.00

> <Gold.PLP.Chemscore.Internal.Correction>
5.9999

> <Gold.Protein.RotatedTorsions>
[ 1932    1    2    3 ] final  -35.92 input   60.00 | X-H torsion
[ 1726  314  313  311 ] final   22.37 input -140.00 | X-H torsion
[ 1619  347  346  344 ] final  -64.58 input  180.00 | X-H torsion
[ 1600  369  368  365 ] final   25.39 input  -80.00 | X-H torsion
[ 2112  410  409  407 ] final  120.36 input   -0.00 | X-H torsion
[ 2483  607  606  603 ] final  178.52 input  170.00 | X-H torsion
[ 2515  623  622  621 ] final -165.26 input   70.00 | X-H torsion

> <Gold.Protein.ActiveResidues>
 GLN18   LEU54   PHE55   TYR56   LEU57   GLY58   GLN59   TYR60   ILE61   MET62  
 THR63   TYR67   GLN72   HIS73   ILE74   VAL75   PHE91   SER92   VAL93   LYS94  
 GLU95   HIS96   ILE99  

> <Gold.Protein.RotatedAtoms>
   24.2933   15.0623    3.2762 H   0  0  0  0  0  0  0  0  0  0  0  0  # atno 1600 bound_to 369 
   26.3487    8.1199    4.0120 H   0  0  0  0  0  0  0  0  0  0  0  0  # atno 1619 bound_to 347 
   20.8941   18.4878   14.8452 H   0  0  0  0  0  0  0  0  0  0  0  0  # atno 1726 bound_to 314 
    0.2671   10.4216    8.6641 H   0  0  0  0  0  0  0  0  0  0  0  0  # atno 1932 bound_to 1   
    0.1319   10.7133    7.0380 H   0  0  0  0  0  0  0  0  0  0  0  0  # atno 1933 bound_to 1   
   18.7732   18.4442   -3.1356 H   0  0  0  0  0  0  0  0  0  0  0  0  # atno 2112 bound_to 410 
    7.5860    7.1887   -3.3522 H   0  0  0  0  0  0  0  0  0  0  0  0  # atno 2483 bound_to 607 
    5.2041   12.5695   -5.9297 H   0  0  0  0  0  0  0  0  0  0  0  0  # atno 2515 bound_to 623 
    3.9121   12.3006   -4.9269 H   0  0  0  0  0  0  0  0  0  0  0  0  # atno 2516 bound_to 623 
    4.6449   11.0271   -5.6940 H   0  0  0  0  0  0  0  0  0  0  0  0  # atno 2517 bound_to 623 
    1.5862   10.8731    7.7905 LP  0  0  0  0  0  0  0  0  0  0  0  0  # atno 3256 bound_to 1   
   21.3121   17.4504   16.0272 LP  0  0  0  0  0  0  0  0  0  0  0  0  # atno 3267 bound_to 314 
   19.7739   17.9869   15.9139 LP  0  0  0  0  0  0  0  0  0  0  0  0  # atno 3268 bound_to 314 
   25.1231    7.0742    3.7832 LP  0  0  0  0  0  0  0  0  0  0  0  0  # atno 3279 bound_to 347 
   25.8792    7.1467    5.2287 LP  0  0  0  0  0  0  0  0  0  0  0  0  # atno 3280 bound_to 347 
   23.4885   15.7880    4.4901 LP  0  0  0  0  0  0  0  0  0  0  0  0  # atno 3287 bound_to 369 
   25.1202   15.8339    4.4463 LP  0  0  0  0  0  0  0  0  0  0  0  0  # atno 3288 bound_to 369 
   18.8207   18.4457   -4.7622 LP  0  0  0  0  0  0  0  0  0  0  0  0  # atno 3291 bound_to 410 
   20.1087   17.9228   -3.9053 LP  0  0  0  0  0  0  0  0  0  0  0  0  # atno 3292 bound_to 410 
    8.9409    8.0901   -3.3452 LP  0  0  0  0  0  0  0  0  0  0  0  0  # atno 3308 bound_to 607 
    8.2983    7.5657   -1.9385 LP  0  0  0  0  0  0  0  0  0  0  0  0  # atno 3309 bound_to 607 

$$$$
