MEPPEP|meppep|sdf|1|dock3
  -GOLD-   6242416 73D 1   1.00000     0.00000

 33 36  0  0  0  0  0  0  0  0  1 V2000
    2.5010   13.0528   -9.2621 C   0  0  0  0  0  0  0  0  0  0  0  0
    3.5384   12.1177   -8.7149 O   0  0  0  0  0  0  0  0  0  0  0  0
    3.1314   10.7784   -8.1760 C   0  0  0  0  0  0  0  0  0  0  0  0
    1.6812   10.3980   -8.1290 C   0  0  0  0  0  0  0  0  0  0  0  0
    1.2742    9.0587   -7.5900 C   0  0  0  0  0  0  0  0  0  0  0  0
    2.3174    8.0996   -7.0982 C   0  0  0  0  0  0  0  0  0  0  0  0
    3.7676    8.4800   -7.1452 C   0  0  0  0  0  0  0  0  0  0  0  0
    4.8108    7.5209   -6.6533 C   0  0  0  0  0  0  0  0  0  0  0  0
    5.8888    6.8889   -7.4832 C   0  0  0  0  0  0  0  0  0  0  0  0
    6.7035    6.0029   -6.5880 C   0  0  0  0  0  0  0  0  0  0  0  0
    7.8851    5.1774   -7.0031 N   0  0  0  0  0  0  0  0  0  0  0  0
    8.2352    3.9331   -6.2420 C   0  0  0  0  0  0  0  0  0  0  0  0
    7.1473    3.0381   -5.7269 C   0  0  0  0  0  0  0  0  0  0  0  0
    9.6731    3.5839   -5.9962 C   0  0  0  0  0  0  0  0  0  0  0  0
   10.7409    4.1210   -6.9024 C   0  0  0  0  0  0  0  0  0  0  0  0
   12.1788    3.7717   -6.6566 C   0  0  0  0  0  0  0  0  0  0  0  0
   12.5488    2.8854   -5.5045 C   0  0  0  0  0  0  0  0  0  0  0  0
   11.4810    2.3482   -4.5983 C   0  0  0  0  0  0  0  0  0  0  0  0
   10.0431    2.6975   -4.8441 C   0  0  0  0  0  0  0  0  0  0  0  0
    6.1290    6.0874   -5.2049 C   0  0  0  0  0  0  0  0  0  0  0  0
    6.6353    5.3611   -3.9940 O   0  0  0  0  0  0  0  0  0  0  0  0
    4.9593    7.0255   -5.2453 N   0  0  0  0  0  0  0  0  0  0  0  0
    4.0906    7.4021   -4.0819 C   0  0  0  0  0  0  0  0  0  0  0  0
    4.2307    6.6777   -2.7759 C   0  0  0  0  0  0  0  0  0  0  0  0
    3.3620    7.0543   -1.6125 C   0  0  0  0  0  0  0  0  0  0  0  0
    2.3532    8.1553   -1.7550 C   0  0  0  0  0  0  0  0  0  0  0  0
    1.4845    8.5319   -0.5916 C   0  0  0  0  0  0  0  0  0  0  0  0
    0.6159    8.9086    0.5718 F   0  0  0  0  0  0  0  0  0  0  0  0
    2.2068    9.8416   -0.4763 F   0  0  0  0  0  0  0  0  0  0  0  0
    0.7623    7.2223   -0.7069 F   0  0  0  0  0  0  0  0  0  0  0  0
    2.2132    8.8797   -3.0610 C   0  0  0  0  0  0  0  0  0  0  0  0
    3.0819    8.5030   -4.2244 C   0  0  0  0  0  0  0  0  0  0  0  0
    4.1746    9.8193   -7.6841 C   0  0  0  0  0  0  0  0  0  0  0  0
  1  2  1  0  0  0  0
  2  3  1  0  0  0  0
  3  4  2  0  0  0  0
  4  5  1  0  0  0  0
  5  6  2  0  0  0  0
  6  7  1  0  0  0  0
  8  7  1  0  0  0  0
  8  9  1  0  0  0  0
  9 10  1  0  0  0  0
 10 11  1  0  0  0  0
 11 12  1  0  0  0  0
 12 13  1  0  0  0  0
 12 14  1  0  0  0  0
 14 15  2  0  0  0  0
 15 16  1  0  0  0  0
 16 17  2  0  0  0  0
 17 18  1  0  0  0  0
 18 19  2  0  0  0  0
 10 20  1  0  0  0  0
 20 21  2  0  0  0  0
 20 22  1  0  0  0  0
 22 23  1  0  0  0  0
 23 24  2  0  0  0  0
 24 25  1  0  0  0  0
 25 26  2  0  0  0  0
 26 27  1  0  0  0  0
 27 28  1  0  0  0  0
 27 29  1  0  0  0  0
 27 30  1  0  0  0  0
 26 31  1  0  0  0  0
 31 32  2  0  0  0  0
  7 33  2  0  0  0  0
 33  3  1  0  0  0  0
 22  8  1  0  0  0  0
 32 23  1  0  0  0  0
 19 14  1  0  0  0  0
M  END
> <Gold.Version>
2024.1.0

> <Gold.Id.Protein>
6Q9L|6Q9L_protein|mol2

> <Gold.PLP.Fitness>
42.1699

> <Gold.PLP.PLP>
-41.6140

> <Gold.PLP.part.hbond>
-1.0000

> <Gold.PLP.part.metal>
0.0000

> <Gold.PLP.part.buried>
-3.2969

> <Gold.PLP.part.nonpolar>
-36.7415

> <Gold.PLP.part.repulsive>
0.1257

> <Gold.PLP.ligand.clash>
0.0000

> <Gold.PLP.ligand.torsion>
2.1657

> <Gold.PLP.Chemscore.Hbond>
0.3833

> <Gold.PLP.Chemscore.CHOScore>
0.0000

> <Gold.PLP.Chemscore.Metal>
0.0000

> <Gold.Chemscore.Hbonds>
donor molecule, donor type, donor heavy atom, donor atom, acceptor molecule, acceptor atom, score
      P1  H   607  2483       L1    21  0.38

> <Gold.PLP.Chemscore.Internal.Correction>
3.7375

> <Gold.Protein.RotatedTorsions>
[ 1932    1    2    3 ] final  135.05 input   60.00 | X-H torsion
[ 1726  314  313  311 ] final   -3.70 input -140.00 | X-H torsion
[ 1619  347  346  344 ] final   76.98 input  180.00 | X-H torsion
[ 1600  369  368  365 ] final   99.49 input  -80.00 | X-H torsion
[ 2112  410  409  407 ] final  -90.36 input   -0.00 | X-H torsion
[ 2483  607  606  603 ] final -167.29 input  170.00 | X-H torsion
[ 2515  623  622  621 ] final  176.07 input   70.00 | X-H torsion

> <Gold.Protein.ActiveResidues>
 GLN18   LEU54   PHE55   TYR56   LEU57   GLY58   GLN59   TYR60   ILE61   MET62  
 THR63   TYR67   GLN72   HIS73   ILE74   VAL75   PHE91   SER92   VAL93   LYS94  
 GLU95   HIS96   ILE99  

> <Gold.Protein.RotatedAtoms>
   25.1983   15.4500    3.8271 H   0  0  0  0  0  0  0  0  0  0  0  0  # atno 1600 bound_to 369 
   25.6112    6.9504    5.1139 H   0  0  0  0  0  0  0  0  0  0  0  0  # atno 1619 bound_to 347 
   21.2578   18.3006   14.9498 H   0  0  0  0  0  0  0  0  0  0  0  0  # atno 1726 bound_to 314 
    1.1929   10.9345    7.0764 H   0  0  0  0  0  0  0  0  0  0  0  0  # atno 1932 bound_to 1   
    1.0728   10.5895    8.6933 H   0  0  0  0  0  0  0  0  0  0  0  0  # atno 1933 bound_to 1   
   20.0047   17.9669   -4.3666 H   0  0  0  0  0  0  0  0  0  0  0  0  # atno 2112 bound_to 410 
    7.5167    7.1279   -3.1401 H   0  0  0  0  0  0  0  0  0  0  0  0  # atno 2483 bound_to 607 
    5.0363   12.7731   -5.7663 H   0  0  0  0  0  0  0  0  0  0  0  0  # atno 2515 bound_to 623 
    3.8442   11.9980   -4.9144 H   0  0  0  0  0  0  0  0  0  0  0  0  # atno 2516 bound_to 623 
    4.8806   11.1262   -5.8700 H   0  0  0  0  0  0  0  0  0  0  0  0  # atno 2517 bound_to 623 
   -0.2528   10.4898    7.7239 LP  0  0  0  0  0  0  0  0  0  0  0  0  # atno 3256 bound_to 1   
   20.9611   17.3755   16.2552 LP  0  0  0  0  0  0  0  0  0  0  0  0  # atno 3267 bound_to 314 
   19.7586   18.2505   15.5806 LP  0  0  0  0  0  0  0  0  0  0  0  0  # atno 3268 bound_to 314 
   26.4748    8.0912    4.3388 LP  0  0  0  0  0  0  0  0  0  0  0  0  # atno 3279 bound_to 347 
   25.2702    7.3075    3.5634 LP  0  0  0  0  0  0  0  0  0  0  0  0  # atno 3280 bound_to 347 
   23.6191   15.1907    3.5326 LP  0  0  0  0  0  0  0  0  0  0  0  0  # atno 3287 bound_to 369 
   24.0782   16.0407    4.8491 LP  0  0  0  0  0  0  0  0  0  0  0  0  # atno 3288 bound_to 369 
   19.1935   18.2775   -2.9905 LP  0  0  0  0  0  0  0  0  0  0  0  0  # atno 3291 bound_to 410 
   18.4957   18.5717   -4.4373 LP  0  0  0  0  0  0  0  0  0  0  0  0  # atno 3292 bound_to 410 
    8.8188    8.0221   -3.5315 LP  0  0  0  0  0  0  0  0  0  0  0  0  # atno 3308 bound_to 607 
    8.4901    7.6949   -1.9658 LP  0  0  0  0  0  0  0  0  0  0  0  0  # atno 3309 bound_to 607 

$$$$
