Atorvastatin|atorvastatin|sdf|1|dock6
  -GOLD-   6242416 73D 1   1.00000     0.00000

 41 44  0  0  0  0  0  0  0  0  1 V2000
    3.0136   10.9436    0.4717 C   0  0  0  0  0  0  0  0  0  0  0  0
    2.6167   10.9885   -0.9741 C   0  0  0  0  0  0  0  0  0  0  0  0
    2.0438    9.7687   -1.6328 C   0  0  0  0  0  0  0  0  0  0  0  0
    2.7927   12.2532   -1.7612 C   0  0  0  0  0  0  0  0  0  0  0  0
    2.2710   12.5113   -3.1437 C   0  0  0  0  0  0  0  0  0  0  0  0
    1.4816   11.5497   -3.9818 C   0  0  0  0  0  0  0  0  0  0  0  0
   -0.0134   11.5069   -3.8669 O   0  0  0  0  0  0  0  0  0  0  0  0
    2.1872   10.6310   -4.9347 N   0  0  0  0  0  0  0  0  0  0  0  0
    1.3940    9.7267   -5.8309 C   0  0  0  0  0  0  0  0  0  0  0  0
    1.9229    8.3680   -6.1833 C   0  0  0  0  0  0  0  0  0  0  0  0
    1.1297    7.4638   -7.0794 C   0  0  0  0  0  0  0  0  0  0  0  0
   -0.1924    7.9181   -7.6231 C   0  0  0  0  0  0  0  0  0  0  0  0
   -0.7213    9.2768   -7.2706 C   0  0  0  0  0  0  0  0  0  0  0  0
    0.0719   10.1811   -6.3745 C   0  0  0  0  0  0  0  0  0  0  0  0
    2.6772   13.8995   -3.5409 C   0  0  0  0  0  0  0  0  0  0  0  0
    2.3653   14.5699   -4.8460 C   0  0  0  0  0  0  0  0  0  0  0  0
    1.3980   13.9372   -5.8019 C   0  0  0  0  0  0  0  0  0  0  0  0
    1.0862   14.6076   -7.1070 C   0  0  0  0  0  0  0  0  0  0  0  0
    1.7417   15.9109   -7.4562 C   0  0  0  0  0  0  0  0  0  0  0  0
    2.7091   16.5436   -6.5002 C   0  0  0  0  0  0  0  0  0  0  0  0
    3.0208   15.8731   -5.1952 C   0  0  0  0  0  0  0  0  0  0  0  0
    3.4499   14.4996   -2.4039 C   0  0  0  0  0  0  0  0  0  0  0  0
    4.0465   15.8754   -2.3724 C   0  0  0  0  0  0  0  0  0  0  0  0
    3.4303   16.9407   -1.5148 C   0  0  0  0  0  0  0  0  0  0  0  0
    4.0269   18.3165   -1.4833 C   0  0  0  0  0  0  0  0  0  0  0  0
    5.2398   18.6272   -2.3093 C   0  0  0  0  0  0  0  0  0  0  0  0
    5.8364   20.0031   -2.2778 F   0  0  0  0  0  0  0  0  0  0  0  0
    5.8561   17.5619   -3.1670 C   0  0  0  0  0  0  0  0  0  0  0  0
    5.2594   16.1860   -3.1985 C   0  0  0  0  0  0  0  0  0  0  0  0
    3.5214   13.4821   -1.3039 N   0  0  0  0  0  0  0  0  0  0  0  0
    4.2019   13.6620    0.0206 C   0  0  0  0  0  0  0  0  0  0  0  0
    3.3890   13.9441    1.2493 C   0  0  0  0  0  0  0  0  0  0  0  0
    3.9013   13.5336    2.5980 C   0  0  0  0  0  0  0  0  0  0  0  0
    3.0981   12.5984    3.4526 O   0  0  0  0  0  0  0  0  0  0  0  0
    5.2167   14.0584    3.0921 C   0  0  0  0  0  0  0  0  0  0  0  0
    6.4603   13.8504    2.2794 C   0  0  0  0  0  0  0  0  0  0  0  0
    6.7638   12.4980    1.7059 O   0  0  0  0  0  0  0  0  0  0  0  0
    7.4002   14.9947    2.0403 C   0  0  0  0  0  0  0  0  0  0  0  0
    8.8397   14.8800    2.4459 C   0  0  0  0  0  0  0  0  0  0  0  0
    9.3522   13.6014    3.0394 O   0  0  0  0  0  0  0  0  0  0  0  0
    9.7668   16.0442    2.2579 O   0  0  0  0  0  0  0  0  0  0  0  0
  1  2  1  0  0  0  0
  2  3  1  0  0  0  0
  2  4  1  0  0  0  0
  4  5  2  0  0  0  0
  5  6  1  0  0  0  0
  6  7  2  0  0  0  0
  6  8  1  0  0  0  0
  8  9  1  0  0  0  0
  9 10  2  0  0  0  0
 10 11  1  0  0  0  0
 11 12  2  0  0  0  0
 12 13  1  0  0  0  0
 13 14  2  0  0  0  0
  5 15  1  0  0  0  0
 15 16  1  0  0  0  0
 16 17  2  0  0  0  0
 17 18  1  0  0  0  0
 18 19  2  0  0  0  0
 19 20  1  0  0  0  0
 20 21  2  0  0  0  0
 15 22  2  0  0  0  0
 22 23  1  0  0  0  0
 23 24  2  0  0  0  0
 24 25  1  0  0  0  0
 25 26  2  0  0  0  0
 26 27  1  0  0  0  0
 26 28  1  0  0  0  0
 28 29  2  0  0  0  0
 22 30  1  0  0  0  0
 30 31  1  0  0  0  0
 31 32  1  0  0  0  0
 32 33  1  0  0  0  0
 33 34  1  0  0  0  0
 33 35  1  0  0  0  0
 35 36  1  0  0  0  0
 36 37  1  0  0  0  0
 36 38  1  0  0  0  0
 38 39  1  0  0  0  0
 39 40  2  0  0  0  0
 39 41  1  0  0  0  0
 30  4  1  0  0  0  0
 14  9  1  0  0  0  0
 21 16  1  0  0  0  0
 29 23  1  0  0  0  0
M  END
> <Gold.Version>
2024.1.0

> <Gold.Id.Protein>
6Q9L|6Q9L_protein|mol2

> <Gold.PLP.Fitness>
34.4456

> <Gold.PLP.PLP>
-23.9712

> <Gold.PLP.part.hbond>
-3.0000

> <Gold.PLP.part.metal>
0.0000

> <Gold.PLP.part.buried>
-1.5352

> <Gold.PLP.part.nonpolar>
-20.3287

> <Gold.PLP.part.repulsive>
0.1655

> <Gold.PLP.ligand.clash>
0.0000

> <Gold.PLP.ligand.torsion>
3.7628

> <Gold.PLP.Chemscore.Hbond>
4.0000

> <Gold.PLP.Chemscore.CHOScore>
0.0000

> <Gold.PLP.Chemscore.Metal>
0.0000

> <Gold.Chemscore.Hbonds>
donor molecule, donor type, donor heavy atom, donor atom, acceptor molecule, acceptor atom, score
      P1  H     9  1929       L1    34  1.00
      P1  H   623  2516       L1     8  2.00
      P1  H   642  3253       L1    37  1.00

> <Gold.PLP.Chemscore.Internal.Correction>
5.9999

> <Gold.Protein.RotatedTorsions>
[ 1932    1    2    3 ] final  -92.36 input   60.00 | X-H torsion
[ 1726  314  313  311 ] final  -61.45 input -140.00 | X-H torsion
[ 1619  347  346  344 ] final    8.93 input  180.00 | X-H torsion
[ 1600  369  368  365 ] final  -56.31 input  -80.00 | X-H torsion
[ 2112  410  409  407 ] final    4.80 input   -0.00 | X-H torsion
[ 2483  607  606  603 ] final   53.15 input  170.00 | X-H torsion
[ 2515  623  622  621 ] final  142.47 input   70.00 | X-H torsion

> <Gold.Protein.ActiveResidues>
 GLN18   LEU54   PHE55   TYR56   LEU57   GLY58   GLN59   TYR60   ILE61   MET62  
 THR63   TYR67   GLN72   HIS73   ILE74   VAL75   PHE91   SER92   VAL93   LYS94  
 GLU95   HIS96   ILE99  

> <Gold.Protein.RotatedAtoms>
   23.3738   15.4635    3.9788 H   0  0  0  0  0  0  0  0  0  0  0  0  # atno 1600 bound_to 369 
   26.3599    7.6797    5.0423 H   0  0  0  0  0  0  0  0  0  0  0  0  # atno 1619 bound_to 347 
   21.5621   17.7245   15.5768 H   0  0  0  0  0  0  0  0  0  0  0  0  # atno 1726 bound_to 314 
   -0.2604   10.4529    7.9293 H   0  0  0  0  0  0  0  0  0  0  0  0  # atno 1932 bound_to 1   
    1.0116   10.9159    6.9726 H   0  0  0  0  0  0  0  0  0  0  0  0  # atno 1933 bound_to 1   
   18.7646   18.4651   -4.7195 H   0  0  0  0  0  0  0  0  0  0  0  0  # atno 2112 bound_to 410 
    8.9732    8.1029   -3.2640 H   0  0  0  0  0  0  0  0  0  0  0  0  # atno 2483 bound_to 607 
    4.6302   12.9168   -5.4193 H   0  0  0  0  0  0  0  0  0  0  0  0  # atno 2515 bound_to 623 
    3.9186   11.4664   -5.0482 H   0  0  0  0  0  0  0  0  0  0  0  0  # atno 2516 bound_to 623 
    5.2123   11.5140   -6.0832 H   0  0  0  0  0  0  0  0  0  0  0  0  # atno 2517 bound_to 623 
    1.2393   10.6427    8.5789 LP  0  0  0  0  0  0  0  0  0  0  0  0  # atno 3256 bound_to 1   
   20.0866   17.6296   16.2564 LP  0  0  0  0  0  0  0  0  0  0  0  0  # atno 3267 bound_to 314 
   20.3267   18.5765   14.9479 LP  0  0  0  0  0  0  0  0  0  0  0  0  # atno 3268 bound_to 314 
   25.8604    7.8825    3.5069 LP  0  0  0  0  0  0  0  0  0  0  0  0  # atno 3279 bound_to 347 
   25.1305    6.7818    4.4674 LP  0  0  0  0  0  0  0  0  0  0  0  0  # atno 3280 bound_to 347 
   24.6559   16.0364    4.8011 LP  0  0  0  0  0  0  0  0  0  0  0  0  # atno 3287 bound_to 369 
   24.8788   15.1814    3.4278 LP  0  0  0  0  0  0  0  0  0  0  0  0  # atno 3288 bound_to 369 
   20.1084   17.9238   -3.9783 LP  0  0  0  0  0  0  0  0  0  0  0  0  # atno 3291 bound_to 410 
   18.8297   18.4237   -3.0941 LP  0  0  0  0  0  0  0  0  0  0  0  0  # atno 3292 bound_to 410 
    8.2246    7.5172   -1.9432 LP  0  0  0  0  0  0  0  0  0  0  0  0  # atno 3308 bound_to 607 
    7.6176    7.2180   -3.4293 LP  0  0  0  0  0  0  0  0  0  0  0  0  # atno 3309 bound_to 607 

$$$$
