Atorvastatin|atorvastatin|sdf|1|dock8
  -GOLD-   6242416 73D 1   1.00000     0.00000

 41 44  0  0  0  0  0  0  0  0  1 V2000
    4.5174   17.3086    6.2272 C   0  0  0  0  0  0  0  0  0  0  0  0
    5.6586   16.8196    5.3855 C   0  0  0  0  0  0  0  0  0  0  0  0
    5.8805   17.3923    4.0170 C   0  0  0  0  0  0  0  0  0  0  0  0
    6.5780   15.7578    5.9123 C   0  0  0  0  0  0  0  0  0  0  0  0
    6.8680   15.4803    7.3576 C   0  0  0  0  0  0  0  0  0  0  0  0
    6.2894   16.2159    8.5299 C   0  0  0  0  0  0  0  0  0  0  0  0
    7.1254   17.2128    9.2765 O   0  0  0  0  0  0  0  0  0  0  0  0
    4.8751   15.9545    8.9556 N   0  0  0  0  0  0  0  0  0  0  0  0
    4.1669   14.7181    8.4865 C   0  0  0  0  0  0  0  0  0  0  0  0
    4.7286   13.3648    8.8073 C   0  0  0  0  0  0  0  0  0  0  0  0
    4.0205   12.1285    8.3382 C   0  0  0  0  0  0  0  0  0  0  0  0
    2.7506   12.2456    7.5484 C   0  0  0  0  0  0  0  0  0  0  0  0
    2.1889   13.5989    7.2276 C   0  0  0  0  0  0  0  0  0  0  0  0
    2.8971   14.8352    7.6967 C   0  0  0  0  0  0  0  0  0  0  0  0
    7.8380   14.3381    7.4247 C   0  0  0  0  0  0  0  0  0  0  0  0
    8.3997   13.7310    8.6760 C   0  0  0  0  0  0  0  0  0  0  0  0
    9.4727   14.4475    9.4411 C   0  0  0  0  0  0  0  0  0  0  0  0
   10.0345   13.8403   10.6923 C   0  0  0  0  0  0  0  0  0  0  0  0
    9.5232   12.5166   11.1787 C   0  0  0  0  0  0  0  0  0  0  0  0
    8.4502   11.8001   10.4137 C   0  0  0  0  0  0  0  0  0  0  0  0
    7.8885   12.4073    9.1624 C   0  0  0  0  0  0  0  0  0  0  0  0
    8.1475   13.9097    6.0210 C   0  0  0  0  0  0  0  0  0  0  0  0
    9.0732   12.7989    5.6220 C   0  0  0  0  0  0  0  0  0  0  0  0
    9.6984   12.7968    4.2585 C   0  0  0  0  0  0  0  0  0  0  0  0
   10.6240   11.6860    3.8596 C   0  0  0  0  0  0  0  0  0  0  0  0
   10.9246   10.5773    4.8241 C   0  0  0  0  0  0  0  0  0  0  0  0
   11.8504    9.4665    4.4251 F   0  0  0  0  0  0  0  0  0  0  0  0
   10.2995   10.5794    6.1877 C   0  0  0  0  0  0  0  0  0  0  0  0
    9.3738   11.6902    6.5866 C   0  0  0  0  0  0  0  0  0  0  0  0
    7.3688   14.7871    5.0861 N   0  0  0  0  0  0  0  0  0  0  0  0
    7.3791   14.7078    3.5883 C   0  0  0  0  0  0  0  0  0  0  0  0
    6.0856   14.6373    2.8321 C   0  0  0  0  0  0  0  0  0  0  0  0
    5.9186   13.6412    1.7231 C   0  0  0  0  0  0  0  0  0  0  0  0
    6.8412   12.4623    1.6285 O   0  0  0  0  0  0  0  0  0  0  0  0
    4.8289   13.8241    0.7086 C   0  0  0  0  0  0  0  0  0  0  0  0
    3.8369   12.7251    0.4670 C   0  0  0  0  0  0  0  0  0  0  0  0
    3.0813   12.1305    1.6183 O   0  0  0  0  0  0  0  0  0  0  0  0
    3.6006   12.2209   -0.9258 C   0  0  0  0  0  0  0  0  0  0  0  0
    2.7566   13.0154   -1.8779 C   0  0  0  0  0  0  0  0  0  0  0  0
    2.5905   12.5558   -3.2959 O   0  0  0  0  0  0  0  0  0  0  0  0
    2.0788   14.2697   -1.4117 O   0  0  0  0  0  0  0  0  0  0  0  0
  1  2  1  0  0  0  0
  2  3  1  0  0  0  0
  2  4  1  0  0  0  0
  4  5  2  0  0  0  0
  5  6  1  0  0  0  0
  6  7  2  0  0  0  0
  6  8  1  0  0  0  0
  8  9  1  0  0  0  0
  9 10  2  0  0  0  0
 10 11  1  0  0  0  0
 11 12  2  0  0  0  0
 12 13  1  0  0  0  0
 13 14  2  0  0  0  0
  5 15  1  0  0  0  0
 15 16  1  0  0  0  0
 16 17  2  0  0  0  0
 17 18  1  0  0  0  0
 18 19  2  0  0  0  0
 19 20  1  0  0  0  0
 20 21  2  0  0  0  0
 15 22  2  0  0  0  0
 22 23  1  0  0  0  0
 23 24  2  0  0  0  0
 24 25  1  0  0  0  0
 25 26  2  0  0  0  0
 26 27  1  0  0  0  0
 26 28  1  0  0  0  0
 28 29  2  0  0  0  0
 22 30  1  0  0  0  0
 30 31  1  0  0  0  0
 31 32  1  0  0  0  0
 32 33  1  0  0  0  0
 33 34  1  0  0  0  0
 33 35  1  0  0  0  0
 35 36  1  0  0  0  0
 36 37  1  0  0  0  0
 36 38  1  0  0  0  0
 38 39  1  0  0  0  0
 39 40  2  0  0  0  0
 39 41  1  0  0  0  0
 30  4  1  0  0  0  0
 14  9  1  0  0  0  0
 21 16  1  0  0  0  0
 29 23  1  0  0  0  0
M  END
> <Gold.Version>
2024.1.0

> <Gold.Id.Protein>
6Q9L|6Q9L_protein|mol2

> <Gold.PLP.Fitness>
59.8425

> <Gold.PLP.PLP>
-53.3891

> <Gold.PLP.part.hbond>
-3.0000

> <Gold.PLP.part.metal>
0.0000

> <Gold.PLP.part.buried>
-3.9455

> <Gold.PLP.part.nonpolar>
-47.2952

> <Gold.PLP.part.repulsive>
0.1225

> <Gold.PLP.ligand.clash>
0.0000

> <Gold.PLP.ligand.torsion>
4.9442

> <Gold.PLP.Chemscore.Hbond>
3.4473

> <Gold.PLP.Chemscore.CHOScore>
0.0000

> <Gold.PLP.Chemscore.Metal>
0.0000

> <Gold.Chemscore.Hbonds>
donor molecule, donor type, donor heavy atom, donor atom, acceptor molecule, acceptor atom, score
      P1  H     9  1929       L1    37  0.46
      P1  H   623  2516       L1    40  1.98
      P1  H   642  3253       L1    34  1.00

> <Gold.PLP.Chemscore.Internal.Correction>
5.9999

> <Gold.Protein.RotatedTorsions>
[ 1932    1    2    3 ] final   87.83 input   60.00 | X-H torsion
[ 1726  314  313  311 ] final   53.42 input -140.00 | X-H torsion
[ 1619  347  346  344 ] final   66.47 input  180.00 | X-H torsion
[ 1600  369  368  365 ] final -116.83 input  -80.00 | X-H torsion
[ 2112  410  409  407 ] final  -77.42 input   -0.00 | X-H torsion
[ 2483  607  606  603 ] final -133.81 input  170.00 | X-H torsion
[ 2515  623  622  621 ] final -173.68 input   70.00 | X-H torsion

> <Gold.Protein.ActiveResidues>
 GLN18   LEU54   PHE55   TYR56   LEU57   GLY58   GLN59   TYR60   ILE61   MET62  
 THR63   TYR67   GLN72   HIS73   ILE74   VAL75   PHE91   SER92   VAL93   LYS94  
 GLU95   HIS96   ILE99  

> <Gold.Protein.RotatedAtoms>
   23.7332   15.9399    4.7095 H   0  0  0  0  0  0  0  0  0  0  0  0  # atno 1600 bound_to 369 
   25.7401    7.0407    5.1820 H   0  0  0  0  0  0  0  0  0  0  0  0  # atno 1619 bound_to 347 
   20.4058   18.5730   14.9188 H   0  0  0  0  0  0  0  0  0  0  0  0  # atno 1726 bound_to 314 
    1.5919   10.8916    7.7297 H   0  0  0  0  0  0  0  0  0  0  0  0  # atno 1932 bound_to 1   
    0.3232   10.4285    8.6907 H   0  0  0  0  0  0  0  0  0  0  0  0  # atno 1933 bound_to 1   
   19.8955   18.0124   -4.5414 H   0  0  0  0  0  0  0  0  0  0  0  0  # atno 2112 bound_to 410 
    7.5385    7.1049   -2.6017 H   0  0  0  0  0  0  0  0  0  0  0  0  # atno 2483 bound_to 607 
    5.1356   12.6706   -5.8605 H   0  0  0  0  0  0  0  0  0  0  0  0  # atno 2515 bound_to 623 
    3.8721   12.1667   -4.9133 H   0  0  0  0  0  0  0  0  0  0  0  0  # atno 2516 bound_to 623 
    4.7534   11.0599   -5.7768 H   0  0  0  0  0  0  0  0  0  0  0  0  # atno 2517 bound_to 623 
    0.0925   10.6907    7.0829 LP  0  0  0  0  0  0  0  0  0  0  0  0  # atno 3256 bound_to 1   
   21.5530   17.6766   15.6458 LP  0  0  0  0  0  0  0  0  0  0  0  0  # atno 3267 bound_to 314 
   20.0248   17.6750   16.2212 LP  0  0  0  0  0  0  0  0  0  0  0  0  # atno 3268 bound_to 314 
   26.4273    8.1186    4.1751 LP  0  0  0  0  0  0  0  0  0  0  0  0  # atno 3279 bound_to 347 
   25.1879    7.1892    3.6585 LP  0  0  0  0  0  0  0  0  0  0  0  0  # atno 3280 bound_to 347 
   25.2351   15.6538    4.1523 LP  0  0  0  0  0  0  0  0  0  0  0  0  # atno 3287 bound_to 369 
   23.9377   15.0842    3.3407 LP  0  0  0  0  0  0  0  0  0  0  0  0  # atno 3288 bound_to 369 
   19.3905   18.1992   -3.0057 LP  0  0  0  0  0  0  0  0  0  0  0  0  # atno 3291 bound_to 410 
   18.4087   18.6042   -4.2461 LP  0  0  0  0  0  0  0  0  0  0  0  0  # atno 3292 bound_to 410 
    8.4161    7.7734   -3.7979 LP  0  0  0  0  0  0  0  0  0  0  0  0  # atno 3308 bound_to 607 
    8.8710    7.9668   -2.2416 LP  0  0  0  0  0  0  0  0  0  0  0  0  # atno 3309 bound_to 607 

$$$$
