Atorvastatin|atorvastatin|sdf|1|dock3
  -GOLD-   6242416 73D 1   1.00000     0.00000

 41 44  0  0  0  0  0  0  0  0  1 V2000
    5.7394   15.5164   -4.3020 C   0  0  0  0  0  0  0  0  0  0  0  0
    7.1329   15.1094   -4.6791 C   0  0  0  0  0  0  0  0  0  0  0  0
    7.3910   14.4581   -6.0055 C   0  0  0  0  0  0  0  0  0  0  0  0
    8.2685   15.3537   -3.7300 C   0  0  0  0  0  0  0  0  0  0  0  0
    9.5945   15.9617   -4.0793 C   0  0  0  0  0  0  0  0  0  0  0  0
   10.0177   16.4322   -5.4394 C   0  0  0  0  0  0  0  0  0  0  0  0
   10.2891   17.8879   -5.6785 O   0  0  0  0  0  0  0  0  0  0  0  0
   10.1696   15.4469   -6.5601 N   0  0  0  0  0  0  0  0  0  0  0  0
    9.7026   15.8032   -7.9404 C   0  0  0  0  0  0  0  0  0  0  0  0
    9.1127   14.7479   -8.8283 C   0  0  0  0  0  0  0  0  0  0  0  0
    8.6457   15.1042  -10.2084 C   0  0  0  0  0  0  0  0  0  0  0  0
    8.7688   16.5158  -10.7008 C   0  0  0  0  0  0  0  0  0  0  0  0
    9.3588   17.5710   -9.8129 C   0  0  0  0  0  0  0  0  0  0  0  0
    9.8257   17.2147   -8.4327 C   0  0  0  0  0  0  0  0  0  0  0  0
   10.4228   16.0167   -2.8300 C   0  0  0  0  0  0  0  0  0  0  0  0
   11.8199   16.5518   -2.7214 C   0  0  0  0  0  0  0  0  0  0  0  0
   12.9047   15.7019   -2.1290 C   0  0  0  0  0  0  0  0  0  0  0  0
   14.3017   16.2370   -2.0204 C   0  0  0  0  0  0  0  0  0  0  0  0
   14.6141   17.6221   -2.5043 C   0  0  0  0  0  0  0  0  0  0  0  0
   13.5294   18.4720   -3.0967 C   0  0  0  0  0  0  0  0  0  0  0  0
   12.1323   17.9368   -3.2053 C   0  0  0  0  0  0  0  0  0  0  0  0
    9.6089   15.4427   -1.7085 C   0  0  0  0  0  0  0  0  0  0  0  0
   10.0490   15.3029   -0.2814 C   0  0  0  0  0  0  0  0  0  0  0  0
   11.2417   14.4583    0.0564 C   0  0  0  0  0  0  0  0  0  0  0  0
   11.6819   14.3185    1.4834 C   0  0  0  0  0  0  0  0  0  0  0  0
   10.9294   15.0234    2.5729 C   0  0  0  0  0  0  0  0  0  0  0  0
   11.3696   14.8837    4.0000 F   0  0  0  0  0  0  0  0  0  0  0  0
    9.7366   15.8681    2.2352 C   0  0  0  0  0  0  0  0  0  0  0  0
    9.2965   16.0078    0.8080 C   0  0  0  0  0  0  0  0  0  0  0  0
    8.2773   15.0329   -2.2646 N   0  0  0  0  0  0  0  0  0  0  0  0
    7.1523   14.4115   -1.4913 C   0  0  0  0  0  0  0  0  0  0  0  0
    7.4419   13.6251   -0.2472 C   0  0  0  0  0  0  0  0  0  0  0  0
    6.3171   13.0011    0.5244 C   0  0  0  0  0  0  0  0  0  0  0  0
    6.6135   12.1176    1.6999 O   0  0  0  0  0  0  0  0  0  0  0  0
    4.8960   13.2606    0.1206 C   0  0  0  0  0  0  0  0  0  0  0  0
    3.8175   12.2925    0.5080 C   0  0  0  0  0  0  0  0  0  0  0  0
    3.4493   12.1184    1.9516 O   0  0  0  0  0  0  0  0  0  0  0  0
    3.1074   11.4988   -0.5483 C   0  0  0  0  0  0  0  0  0  0  0  0
    2.0565   10.5022   -0.1578 C   0  0  0  0  0  0  0  0  0  0  0  0
    2.2286    9.0542   -0.5089 O   0  0  0  0  0  0  0  0  0  0  0  0
    0.8333   10.9540    0.5837 O   0  0  0  0  0  0  0  0  0  0  0  0
  1  2  1  0  0  0  0
  2  3  1  0  0  0  0
  2  4  1  0  0  0  0
  4  5  2  0  0  0  0
  5  6  1  0  0  0  0
  6  7  2  0  0  0  0
  6  8  1  0  0  0  0
  8  9  1  0  0  0  0
  9 10  2  0  0  0  0
 10 11  1  0  0  0  0
 11 12  2  0  0  0  0
 12 13  1  0  0  0  0
 13 14  2  0  0  0  0
  5 15  1  0  0  0  0
 15 16  1  0  0  0  0
 16 17  2  0  0  0  0
 17 18  1  0  0  0  0
 18 19  2  0  0  0  0
 19 20  1  0  0  0  0
 20 21  2  0  0  0  0
 15 22  2  0  0  0  0
 22 23  1  0  0  0  0
 23 24  2  0  0  0  0
 24 25  1  0  0  0  0
 25 26  2  0  0  0  0
 26 27  1  0  0  0  0
 26 28  1  0  0  0  0
 28 29  2  0  0  0  0
 22 30  1  0  0  0  0
 30 31  1  0  0  0  0
 31 32  1  0  0  0  0
 32 33  1  0  0  0  0
 33 34  1  0  0  0  0
 33 35  1  0  0  0  0
 35 36  1  0  0  0  0
 36 37  1  0  0  0  0
 36 38  1  0  0  0  0
 38 39  1  0  0  0  0
 39 40  2  0  0  0  0
 39 41  1  0  0  0  0
 30  4  1  0  0  0  0
 14  9  1  0  0  0  0
 21 16  1  0  0  0  0
 29 23  1  0  0  0  0
M  END
> <Gold.Version>
2024.1.0

> <Gold.Id.Protein>
6Q9L|6Q9L_protein|mol2

> <Gold.PLP.Fitness>
64.8888

> <Gold.PLP.PLP>
-64.0454

> <Gold.PLP.part.hbond>
-3.0000

> <Gold.PLP.part.metal>
0.0000

> <Gold.PLP.part.buried>
-1.4675

> <Gold.PLP.part.nonpolar>
-61.7106

> <Gold.PLP.part.repulsive>
0.4574

> <Gold.PLP.ligand.clash>
0.0000

> <Gold.PLP.ligand.torsion>
5.4884

> <Gold.PLP.Chemscore.Hbond>
1.6880

> <Gold.PLP.Chemscore.CHOScore>
0.0000

> <Gold.PLP.Chemscore.Metal>
0.0000

> <Gold.Chemscore.Hbonds>
donor molecule, donor type, donor heavy atom, donor atom, acceptor molecule, acceptor atom, score
      P1  H     9  1929       L1    37  0.50
      P1  H   446  2149       L1     8  0.19
      P1  H   642  3253       L1    34  1.00

> <Gold.PLP.Chemscore.Internal.Correction>
6.7561

> <Gold.Protein.RotatedTorsions>
[ 1932    1    2    3 ] final -164.93 input   60.00 | X-H torsion
[ 1726  314  313  311 ] final -145.72 input -140.00 | X-H torsion
[ 1619  347  346  344 ] final  -36.61 input  180.00 | X-H torsion
[ 1600  369  368  365 ] final   90.93 input  -80.00 | X-H torsion
[ 2112  410  409  407 ] final   15.30 input   -0.00 | X-H torsion
[ 2483  607  606  603 ] final  -65.23 input  170.00 | X-H torsion
[ 2515  623  622  621 ] final -148.86 input   70.00 | X-H torsion

> <Gold.Protein.ActiveResidues>
 GLN18   LEU54   PHE55   TYR56   LEU57   GLY58   GLN59   TYR60   ILE61   MET62  
 THR63   TYR67   GLN72   HIS73   ILE74   VAL75   PHE91   SER92   VAL93   LYS94  
 GLU95   HIS96   ILE99  

> <Gold.Protein.RotatedAtoms>
   25.1491   15.3787    3.7174 H   0  0  0  0  0  0  0  0  0  0  0  0  # atno 1600 bound_to 369 
   26.4860    8.0611    4.4392 H   0  0  0  0  0  0  0  0  0  0  0  0  # atno 1619 bound_to 347 
   20.6134   17.4099   16.3375 H   0  0  0  0  0  0  0  0  0  0  0  0  # atno 1726 bound_to 314 
    0.2588   10.7544    6.9689 H   0  0  0  0  0  0  0  0  0  0  0  0  # atno 1932 bound_to 1   
    1.5997   10.8520    7.9384 H   0  0  0  0  0  0  0  0  0  0  0  0  # atno 1933 bound_to 1   
   18.6389   18.5140   -4.6140 H   0  0  0  0  0  0  0  0  0  0  0  0  # atno 2112 bound_to 410 
    8.2484    7.5303   -1.9475 H   0  0  0  0  0  0  0  0  0  0  0  0  # atno 2483 bound_to 607 
    5.2985   12.3372   -6.0381 H   0  0  0  0  0  0  0  0  0  0  0  0  # atno 2515 bound_to 623 
    4.0308   12.5386   -4.9894 H   0  0  0  0  0  0  0  0  0  0  0  0  # atno 2516 bound_to 623 
    4.4318   11.0215   -5.5233 H   0  0  0  0  0  0  0  0  0  0  0  0  # atno 2517 bound_to 623 
    0.1482   10.4086    8.5736 LP  0  0  0  0  0  0  0  0  0  0  0  0  # atno 3256 bound_to 1   
   19.8898   18.4317   15.2982 LP  0  0  0  0  0  0  0  0  0  0  0  0  # atno 3267 bound_to 314 
   21.4790   18.0913   15.1399 LP  0  0  0  0  0  0  0  0  0  0  0  0  # atno 3268 bound_to 314 
   25.3291    7.3822    3.5180 LP  0  0  0  0  0  0  0  0  0  0  0  0  # atno 3279 bound_to 347 
   25.5349    6.8978    5.0638 LP  0  0  0  0  0  0  0  0  0  0  0  0  # atno 3280 bound_to 347 
   23.5298   15.2458    3.6265 LP  0  0  0  0  0  0  0  0  0  0  0  0  # atno 3287 bound_to 369 
   24.2170   16.0574    4.8657 LP  0  0  0  0  0  0  0  0  0  0  0  0  # atno 3288 bound_to 369 
   20.0866   17.9344   -4.1491 LP  0  0  0  0  0  0  0  0  0  0  0  0  # atno 3291 bound_to 410 
   18.9781   18.3638   -3.0296 LP  0  0  0  0  0  0  0  0  0  0  0  0  # atno 3292 bound_to 410 
    7.6056    7.2084   -3.4074 LP  0  0  0  0  0  0  0  0  0  0  0  0  # atno 3308 bound_to 607 
    8.9665    8.1033   -3.2907 LP  0  0  0  0  0  0  0  0  0  0  0  0  # atno 3309 bound_to 607 

$$$$
