#       Name:                Atorvastatin
#       Creating user name   noviasari
#       Creation time:       Wed Jul 24 16:07:45 2024


#       File generated by GOLD software.
#

@<TRIPOS>MOLECULE
Atorvastatin
    48    51     1
SMALL
NO_CHARGES


@<TRIPOS>ATOM
      1 ****         2.3485   1.5790   0.0000 C.3            1 S1                 0.0000
      2 ****         0.8813   1.8909   0.0000 C.2            1 S1                 0.0000
      3 ****         0.4178   3.3175   0.0000 C.3            1 S1                 0.0000
      4 ****        -0.1224   0.7762   0.0000 C.2            1 S1                 0.0000
      5 ****        -1.6142   0.9329   0.0000 C.2            1 S1                 0.0000
      6 ****        -2.3642   2.2320   0.0000 C.2            1 S1                 0.0000
      7 ****        -3.8642   2.2320   0.0000 O.2            1 S1                 0.0000
      8 ****        -1.6142   3.5310   0.0000 N.pl3          1 S1                 0.0000
      9 ****        -2.3642   4.8301   0.0000 C.2            1 S1                 0.0000
     10 ****        -1.6142   6.1291   0.0000 C.3            1 S1                 0.0000
     11 ****        -2.3642   7.4281   0.0000 C.3            1 S1                 0.0000
     12 ****        -3.8642   7.4281   0.0000 C.3            1 S1                 0.0000
     13 ****        -4.6142   6.1291   0.0000 C.3            1 S1                 0.0000
     14 ****        -3.8642   4.8301   0.0000 C.3            1 S1                 0.0000
     15 ****        -2.2243  -0.4374   0.0000 C.2            1 S1                 0.0000
     16 ****        -3.6915  -0.7492   0.0000 C.2            1 S1                 0.0000
     17 ****        -4.6952   0.3655   0.0000 C.3            1 S1                 0.0000
     18 ****        -6.1624   0.0536   0.0000 C.3            1 S1                 0.0000
     19 ****        -6.6260  -1.3730   0.0000 C.3            1 S1                 0.0000
     20 ****        -5.6223  -2.4877   0.0000 C.3            1 S1                 0.0000
     21 ****        -4.1551  -2.1758   0.0000 C.3            1 S1                 0.0000
     22 ****        -1.1096  -1.4411   0.0000 C.2            1 S1                 0.0000
     23 ****        -1.2664  -2.9328   0.0000 C.2            1 S1                 0.0000
     24 ****        -2.6367  -3.5430   0.0000 C.3            1 S1                 0.0000
     25 ****        -2.7935  -5.0347   0.0000 C.3            1 S1                 0.0000
     26 ****        -1.5800  -5.9164   0.0000 C.2            1 S1                 0.0000
     27 ****        -1.7368  -7.4082   0.0000 F              1 S1                 0.0000
     28 ****        -0.2096  -5.3063   0.0000 C.3            1 S1                 0.0000
     29 ****        -0.0529  -3.8145   0.0000 C.3            1 S1                 0.0000
     30 ****         0.1895  -0.6911   0.0000 N.pl3          1 S1                 0.0000
     31 ****         1.5598  -1.3012   0.0000 C.3            1 S1                 0.0000
     32 ****         2.7733  -0.4195   0.0000 C.3            1 S1                 0.0000
     33 ****         4.1436  -1.0296   0.0000 C.2            1 S1                 0.0000
     34 ****         4.3004  -2.5214   0.0000 O.co2          1 S1                 0.0000
     35 ****         5.3571  -0.1479   0.0000 C.3            1 S1                 0.0000
     36 ****         6.7275  -0.7580   0.0000 C.2            1 S1                 0.0000
     37 ****         6.8842  -2.2498   0.0000 O.co2          1 S1                 0.0000
     38 ****         7.9410   0.1237   0.0000 C.3            1 S1                 0.0000
     39 ****         9.3113  -0.4865   0.0000 C.2            1 S1                 0.0000
     40 ****         9.4681  -1.9782   0.0000 O.co2          1 S1                 0.0000
     41 ****        10.5248   0.3952   0.0000 O.co2          1 S1                 0.0000
     42 ****        -4.3642   1.3660   0.0000 LP             1 S1                 0.0000
     43 ****        -4.3642   3.0980  -0.0000 LP             1 S1                 0.0000
     44 ****        -0.6142   3.5310   0.0000 LP             1 S1                 0.0000
     45 ****        10.3816  -2.3849  -0.0000 LP             1 S1                 0.0000
     46 ****         8.6591  -2.5660   0.0000 LP             1 S1                 0.0000
     47 ****        11.4383  -0.0115   0.0000 LP             1 S1                 0.0000
     48 ****        10.4202   1.3897  -0.0000 LP             1 S1                 0.0000
@<TRIPOS>BOND
    1    1    2 1     
    2    2    3 1     
    3    2    4 1     
    4    4    5 2     
    5    5    6 1     
    6    6    7 2     
    7    6    8 1     
    8    8    9 1     
    9    9   10 2     
   10   10   11 1     
   11   11   12 2     
   12   12   13 1     
   13   13   14 2     
   14    5   15 1     
   15   15   16 1     
   16   16   17 2     
   17   17   18 1     
   18   18   19 2     
   19   19   20 1     
   20   20   21 2     
   21   15   22 2     
   22   22   23 1     
   23   23   24 2     
   24   24   25 1     
   25   25   26 2     
   26   26   27 1     
   27   26   28 1     
   28   28   29 2     
   29   22   30 1     
   30   30   31 1     
   31   31   32 1     
   32   32   33 1     
   33   33   34 ar    
   34   33   35 1     
   35   35   36 1     
   36   36   37 ar    
   37   36   38 1     
   38   38   39 1     
   39   39   40 ar    
   40   39   41 ar    
   41   30    4 1     
   42   14    9 1     
   43   21   16 1     
   44   29   23 1     
   45    7   42 1     
   46    7   43 1     
   47    8   44 1     
   48   40   45 1     
   49   40   46 1     
   50   41   47 1     
   51   41   48 1     
@<TRIPOS>SUBSTRUCTURE
      1 S1             1
@<TRIPOS>SET
LONE_PAIRS      STATIC     ATOMS    <user>   **** ""
9 42 43 44 34 37 45 46 47 48
ATOM$BLUE        STATIC     ATOMS    COLORGROUP SYSTEM
9 42 43 44 34 37 45 46 47 48
