MEPPEP|meppep|sdf|1|dock5
  -GOLD-   6242416 73D 1   1.00000     0.00000

 33 36  0  0  0  0  0  0  0  0  1 V2000
   16.2915   19.3973   -3.1077 C   0  0  0  0  0  0  0  0  0  0  0  0
   16.0008   18.1007   -2.4118 O   0  0  0  0  0  0  0  0  0  0  0  0
   15.2528   18.0985   -1.1117 C   0  0  0  0  0  0  0  0  0  0  0  0
   14.8003   19.3934   -0.5045 C   0  0  0  0  0  0  0  0  0  0  0  0
   14.0523   19.3912    0.7956 C   0  0  0  0  0  0  0  0  0  0  0  0
   13.7567   18.0942    1.4887 C   0  0  0  0  0  0  0  0  0  0  0  0
   14.2092   16.7994    0.8816 C   0  0  0  0  0  0  0  0  0  0  0  0
   13.9136   15.5023    1.5746 C   0  0  0  0  0  0  0  0  0  0  0  0
   14.9120   14.6303    2.2767 C   0  0  0  0  0  0  0  0  0  0  0  0
   14.1832   13.4386    2.8233 C   0  0  0  0  0  0  0  0  0  0  0  0
   14.7957   12.3096    3.5981 N   0  0  0  0  0  0  0  0  0  0  0  0
   13.9490   11.4920    4.5279 C   0  0  0  0  0  0  0  0  0  0  0  0
   14.0187    9.9942    4.4842 C   0  0  0  0  0  0  0  0  0  0  0  0
   13.0326   12.1720    5.5014 C   0  0  0  0  0  0  0  0  0  0  0  0
   13.2778   13.5998    5.8904 C   0  0  0  0  0  0  0  0  0  0  0  0
   12.3614   14.2799    6.8639 C   0  0  0  0  0  0  0  0  0  0  0  0
   11.1999   13.5322    7.4484 C   0  0  0  0  0  0  0  0  0  0  0  0
   10.9547   12.1044    7.0594 C   0  0  0  0  0  0  0  0  0  0  0  0
   11.8711   11.4243    6.0859 C   0  0  0  0  0  0  0  0  0  0  0  0
   12.7344   13.5741    2.4590 C   0  0  0  0  0  0  0  0  0  0  0  0
   11.6437   12.6043    2.8055 O   0  0  0  0  0  0  0  0  0  0  0  0
   12.5678   14.8495    1.6873 N   0  0  0  0  0  0  0  0  0  0  0  0
   11.2813   15.3791    1.1267 C   0  0  0  0  0  0  0  0  0  0  0  0
   11.2969   16.5540    0.1941 C   0  0  0  0  0  0  0  0  0  0  0  0
   10.0103   17.0836   -0.3665 C   0  0  0  0  0  0  0  0  0  0  0  0
    8.7082   16.4384    0.0054 C   0  0  0  0  0  0  0  0  0  0  0  0
    7.4216   16.9680   -0.5552 C   0  0  0  0  0  0  0  0  0  0  0  0
    6.1351   17.4976   -1.1159 F   0  0  0  0  0  0  0  0  0  0  0  0
    7.2621   15.7184   -1.3696 F   0  0  0  0  0  0  0  0  0  0  0  0
    7.5812   18.2176    0.2591 F   0  0  0  0  0  0  0  0  0  0  0  0
    8.6926   15.2636    0.9379 C   0  0  0  0  0  0  0  0  0  0  0  0
    9.9792   14.7340    1.4985 C   0  0  0  0  0  0  0  0  0  0  0  0
   14.9572   16.8015   -0.4186 C   0  0  0  0  0  0  0  0  0  0  0  0
  1  2  1  0  0  0  0
  2  3  1  0  0  0  0
  3  4  2  0  0  0  0
  4  5  1  0  0  0  0
  5  6  2  0  0  0  0
  6  7  1  0  0  0  0
  8  7  1  0  0  0  0
  8  9  1  0  0  0  0
  9 10  1  0  0  0  0
 10 11  1  0  0  0  0
 11 12  1  0  0  0  0
 12 13  1  0  0  0  0
 12 14  1  0  0  0  0
 14 15  2  0  0  0  0
 15 16  1  0  0  0  0
 16 17  2  0  0  0  0
 17 18  1  0  0  0  0
 18 19  2  0  0  0  0
 10 20  1  0  0  0  0
 20 21  2  0  0  0  0
 20 22  1  0  0  0  0
 22 23  1  0  0  0  0
 23 24  2  0  0  0  0
 24 25  1  0  0  0  0
 25 26  2  0  0  0  0
 26 27  1  0  0  0  0
 27 28  1  0  0  0  0
 27 29  1  0  0  0  0
 27 30  1  0  0  0  0
 26 31  1  0  0  0  0
 31 32  2  0  0  0  0
  7 33  2  0  0  0  0
 33  3  1  0  0  0  0
 22  8  1  0  0  0  0
 32 23  1  0  0  0  0
 19 14  1  0  0  0  0
M  END
> <Gold.Version>
2024.1.0

> <Gold.Id.Protein>
6Q9L|6Q9L_protein|mol2

> <Gold.PLP.Fitness>
37.0266

> <Gold.PLP.PLP>
-37.9610

> <Gold.PLP.part.hbond>
0.0000

> <Gold.PLP.part.metal>
0.0000

> <Gold.PLP.part.buried>
-0.8815

> <Gold.PLP.part.nonpolar>
-37.4244

> <Gold.PLP.part.repulsive>
0.1713

> <Gold.PLP.ligand.clash>
0.0000

> <Gold.PLP.ligand.torsion>
2.3359

> <Gold.PLP.Chemscore.Hbond>
0.0000

> <Gold.PLP.Chemscore.CHOScore>
0.0000

> <Gold.PLP.Chemscore.Metal>
0.0000

> <Gold.PLP.Chemscore.Internal.Correction>
3.7375

> <Gold.Protein.RotatedTorsions>
[ 1932    1    2    3 ] final   84.40 input   60.00 | X-H torsion
[ 1726  314  313  311 ] final   84.42 input -140.00 | X-H torsion
[ 1619  347  346  344 ] final  -49.30 input  180.00 | X-H torsion
[ 1600  369  368  365 ] final   16.64 input  -80.00 | X-H torsion
[ 2112  410  409  407 ] final   99.74 input   -0.00 | X-H torsion
[ 2483  607  606  603 ] final -123.84 input  170.00 | X-H torsion
[ 2515  623  622  621 ] final   15.09 input   70.00 | X-H torsion

> <Gold.Protein.ActiveResidues>
 GLN18   LEU54   PHE55   TYR56   LEU57   GLY58   GLN59   TYR60   ILE61   MET62  
 THR63   TYR67   GLN72   HIS73   ILE74   VAL75   PHE91   SER92   VAL93   LYS94  
 GLU95   HIS96   ILE99  

> <Gold.Protein.RotatedAtoms>
   24.1510   15.0641    3.2893 H   0  0  0  0  0  0  0  0  0  0  0  0  # atno 1600 bound_to 369 
   26.4430    8.1072    4.2421 H   0  0  0  0  0  0  0  0  0  0  0  0  # atno 1619 bound_to 347 
   19.9910   18.4871   15.1850 H   0  0  0  0  0  0  0  0  0  0  0  0  # atno 1726 bound_to 314 
    1.5986   10.8819    7.7857 H   0  0  0  0  0  0  0  0  0  0  0  0  # atno 1932 bound_to 1   
    0.2717   10.4221    8.6664 H   0  0  0  0  0  0  0  0  0  0  0  0  # atno 1933 bound_to 1   
   18.5425   18.5386   -3.3596 H   0  0  0  0  0  0  0  0  0  0  0  0  # atno 2112 bound_to 410 
    7.5947    7.1317   -2.4514 H   0  0  0  0  0  0  0  0  0  0  0  0  # atno 2483 bound_to 607 
    3.9673   11.3666   -5.1012 H   0  0  0  0  0  0  0  0  0  0  0  0  # atno 2515 bound_to 623 
    5.2599   11.6253   -6.1061 H   0  0  0  0  0  0  0  0  0  0  0  0  # atno 2516 bound_to 623 
    4.5339   12.9053   -5.3434 H   0  0  0  0  0  0  0  0  0  0  0  0  # atno 2517 bound_to 623 
    0.1367   10.7065    7.0515 LP  0  0  0  0  0  0  0  0  0  0  0  0  # atno 3256 bound_to 1   
   21.5385   17.9883   15.2501 LP  0  0  0  0  0  0  0  0  0  0  0  0  # atno 3267 bound_to 314 
   20.4571   17.4498   16.3488 LP  0  0  0  0  0  0  0  0  0  0  0  0  # atno 3268 bound_to 314 
   25.2188    7.2360    3.6173 LP  0  0  0  0  0  0  0  0  0  0  0  0  # atno 3279 bound_to 347 
   25.6886    6.9977    5.1630 LP  0  0  0  0  0  0  0  0  0  0  0  0  # atno 3280 bound_to 347 
   23.5706   15.8536    4.5884 LP  0  0  0  0  0  0  0  0  0  0  0  0  # atno 3287 bound_to 369 
   25.1814   15.7664    4.3349 LP  0  0  0  0  0  0  0  0  0  0  0  0  # atno 3288 bound_to 369 
   19.1192   18.3279   -4.8667 LP  0  0  0  0  0  0  0  0  0  0  0  0  # atno 3291 bound_to 410 
   20.0425   17.9456   -3.5752 LP  0  0  0  0  0  0  0  0  0  0  0  0  # atno 3292 bound_to 410 
    8.2801    7.6847   -3.8198 LP  0  0  0  0  0  0  0  0  0  0  0  0  # atno 3308 bound_to 607 
    8.9503    8.0285   -2.3710 LP  0  0  0  0  0  0  0  0  0  0  0  0  # atno 3309 bound_to 607 

$$$$
