REMARK  Name = OTENABANT
REMARK  5 active torsions:
REMARK  status: ('A' for Active; 'I' for Inactive)
REMARK    1  A    between atoms: C_2  and  N_3
REMARK    2  A    between atoms: N_3  and  C_4
REMARK    3  A    between atoms: C_4  and  C_5
REMARK    4  A    between atoms: C_18  and  C_19
REMARK    5  A    between atoms: N_26  and  C_27
REMARK                            x       y       z     vdW  Elec       q    Type
REMARK                         _______ _______ _______ _____ _____    ______ ____
ROOT
ATOM      4  C   UNL     1       3.000  -5.196   0.000  0.00  0.00    +0.000 C 
ATOM      8  C   UNL     1       1.500  -5.196   0.000  0.00  0.00    +0.000 C 
ATOM      9  C   UNL     1       0.750  -3.897   0.000  0.00  0.00    +0.000 C 
ATOM     10  N   UNL     1       1.500  -2.598   0.000  0.00  0.00    +0.000 N 
ATOM     11  C   UNL     1       0.750  -1.299   0.000  0.00  0.00    +0.000 A 
ATOM     12  N   UNL     1       1.500   0.000   0.000  0.00  0.00    +0.000 NA
ATOM     13  C   UNL     1       0.750   1.299   0.000  0.00  0.00    +0.000 A 
ATOM     14  N   UNL     1      -0.750   1.299   0.000  0.00  0.00    +0.000 NA
ATOM     15  C   UNL     1      -1.500   0.000   0.000  0.00  0.00    +0.000 A 
ATOM     16  C   UNL     1      -0.750  -1.299   0.000  0.00  0.00    +0.000 A 
ATOM     17  N   UNL     1      -1.754  -2.414   0.000  0.00  0.00    +0.000 NA
ATOM     18  C   UNL     1      -3.124  -1.804   0.000  0.00  0.00    +0.000 A 
ATOM     26  N   UNL     1      -2.967  -0.312   0.000  0.00  0.00    +0.000 N 
ATOM     34  C   UNL     1       3.000  -2.598   0.000  0.00  0.00    +0.000 C 
ATOM     35  C   UNL     1       3.750  -3.897   0.000  0.00  0.00    +0.000 C 
ENDROOT
BRANCH  18  19
ATOM     19  C   UNL     1      -4.423  -2.554   0.000  0.00  0.00    +0.000 A 
ATOM     20  C   UNL     1      -5.722  -1.804   0.000  0.00  0.00    +0.000 A 
ATOM     21  C   UNL     1      -7.021  -2.554   0.000  0.00  0.00    +0.000 A 
ATOM     22  C   UNL     1      -7.021  -4.054   0.000  0.00  0.00    +0.000 A 
ATOM     23  C   UNL     1      -5.722  -4.804   0.000  0.00  0.00    +0.000 A 
ATOM     24  C   UNL     1      -4.423  -4.054   0.000  0.00  0.00    +0.000 A 
ATOM     25 CL   UNL     1      -3.124  -4.804   0.000  0.00  0.00    +0.000 Cl
ENDBRANCH  18  19
BRANCH  26  27
ATOM     27  C   UNL     1      -4.082   0.692   0.000  0.00  0.00    +0.000 A 
ATOM     28  C   UNL     1      -3.770   2.159   0.000  0.00  0.00    +0.000 A 
ATOM     29  C   UNL     1      -4.885   3.163   0.000  0.00  0.00    +0.000 A 
ATOM     30  C   UNL     1      -6.311   2.699   0.000  0.00  0.00    +0.000 A 
ATOM     31 CL   UNL     1      -7.426   3.703   0.000  0.00  0.00    +0.000 Cl
ATOM     32  C   UNL     1      -6.623   1.232   0.000  0.00  0.00    +0.000 A 
ATOM     33  C   UNL     1      -5.508   0.228   0.000  0.00  0.00    +0.000 A 
ENDBRANCH  26  27
BRANCH   4   5
ATOM      5  C   UNL     1       4.410  -5.709   0.000  0.00  0.00    +0.000 C 
ATOM      6  N   UNL     1       4.670  -7.186   0.000  0.00  0.00    +0.000 NA
ATOM      7  O   UNL     1       5.559  -4.745   0.000  0.00  0.00    +0.000 OA
ENDBRANCH   4   5
BRANCH   4   3
ATOM      3  N   UNL     1       2.740  -6.673   0.000  0.00  0.00    +0.000 NA
BRANCH   3   2
ATOM      1  C   UNL     1       1.069  -8.664   0.000  0.00  0.00    +0.000 C 
ATOM      2  C   UNL     1       1.330  -7.186   0.000  0.00  0.00    +0.000 C 
ENDBRANCH   3   2
ENDBRANCH   4   3
TORSDOF 5
