REMARK  Name = Atorvastatin
REMARK  12 active torsions:
REMARK  status: ('A' for Active; 'I' for Inactive)
REMARK    1  A    between atoms: C_2  and  C_4
REMARK    2  A    between atoms: C_5  and  C_6
REMARK    3  A    between atoms: N_8  and  C_9
REMARK    4  A    between atoms: C_15  and  C_16
REMARK    5  A    between atoms: C_22  and  C_23
REMARK    6  A    between atoms: N_30  and  C_31
REMARK    7  A    between atoms: C_31  and  C_32
REMARK    8  A    between atoms: C_32  and  C_33
REMARK    9  A    between atoms: C_33  and  C_35
REMARK   10  A    between atoms: C_35  and  C_36
REMARK   11  A    between atoms: C_36  and  C_38
REMARK   12  A    between atoms: C_38  and  C_39
REMARK                            x       y       z     vdW  Elec       q    Type
REMARK                         _______ _______ _______ _____ _____    ______ ____
ROOT
ATOM      4  C   UNL     1       2.992  -5.353   0.000  0.00  0.00    +0.000 A 
ATOM      5  C   UNL     1       1.500  -5.196   0.000  0.00  0.00    +0.000 A 
ATOM     15  C   UNL     1       0.890  -6.566   0.000  0.00  0.00    +0.000 A 
ATOM     22  C   UNL     1       2.005  -7.570   0.000  0.00  0.00    +0.000 A 
ATOM     30  N   UNL     1       3.304  -6.820   0.000  0.00  0.00    +0.000 N 
ENDROOT
BRANCH  22  23
ATOM     23  C   UNL     1       1.848  -9.062   0.000  0.00  0.00    +0.000 A 
ATOM     24  C   UNL     1       0.477  -9.672   0.000  0.00  0.00    +0.000 A 
ATOM     25  C   UNL     1       0.321 -11.164   0.000  0.00  0.00    +0.000 A 
ATOM     26  C   UNL     1       1.534 -12.046   0.000  0.00  0.00    +0.000 A 
ATOM     27  F   UNL     1       1.377 -13.537   0.000  0.00  0.00    +0.000 F 
ATOM     28  C   UNL     1       2.905 -11.435   0.000  0.00  0.00    +0.000 A 
ATOM     29  C   UNL     1       3.061  -9.944   0.000  0.00  0.00    +0.000 A 
ENDBRANCH  22  23
BRANCH  15  16
ATOM     16  C   UNL     1      -0.577  -6.878   0.000  0.00  0.00    +0.000 A 
ATOM     17  C   UNL     1      -1.581  -5.764   0.000  0.00  0.00    +0.000 A 
ATOM     18  C   UNL     1      -3.048  -6.075   0.000  0.00  0.00    +0.000 A 
ATOM     19  C   UNL     1      -3.512  -7.502   0.000  0.00  0.00    +0.000 A 
ATOM     20  C   UNL     1      -2.508  -8.617   0.000  0.00  0.00    +0.000 A 
ATOM     21  C   UNL     1      -1.041  -8.305   0.000  0.00  0.00    +0.000 A 
ENDBRANCH  15  16
BRANCH   4   2
ATOM      1  C   UNL     1       5.463  -4.550   0.000  0.00  0.00    +0.000 C 
ATOM      2  C   UNL     1       3.995  -4.238   0.000  0.00  0.00    +0.000 C 
ATOM      3  C   UNL     1       3.532  -2.812   0.000  0.00  0.00    +0.000 C 
ENDBRANCH   4   2
BRANCH   5   6
ATOM      6  C   UNL     1       0.750  -3.897   0.000  0.00  0.00    +0.000 C 
ATOM      7  O   UNL     1      -0.750  -3.897   0.000  0.00  0.00    +0.000 OA
ATOM      8  N   UNL     1       1.500  -2.598   0.000  0.00  0.00    +0.000 NA
BRANCH   8   9
ATOM      9  C   UNL     1       0.750  -1.299   0.000  0.00  0.00    +0.000 A 
ATOM     10  C   UNL     1       1.500   0.000   0.000  0.00  0.00    +0.000 A 
ATOM     11  C   UNL     1       0.750   1.299   0.000  0.00  0.00    +0.000 A 
ATOM     12  C   UNL     1      -0.750   1.299   0.000  0.00  0.00    +0.000 A 
ATOM     13  C   UNL     1      -1.500   0.000   0.000  0.00  0.00    +0.000 A 
ATOM     14  C   UNL     1      -0.750  -1.299   0.000  0.00  0.00    +0.000 A 
ENDBRANCH   8   9
ENDBRANCH   5   6
BRANCH  30  31
ATOM     31  C   UNL     1       4.674  -7.430   0.000  0.00  0.00    +0.000 C 
BRANCH  31  32
ATOM     32  C   UNL     1       5.888  -6.549   0.000  0.00  0.00    +0.000 C 
BRANCH  32  33
ATOM     33  C   UNL     1       7.258  -7.159   0.000  0.00  0.00    +0.000 C 
ATOM     34  O   UNL     1       7.415  -8.650   0.000  0.00  0.00    +0.000 OA
BRANCH  33  35
ATOM     35  C   UNL     1       8.471  -6.277   0.000  0.00  0.00    +0.000 C 
BRANCH  35  36
ATOM     36  C   UNL     1       9.842  -6.887   0.000  0.00  0.00    +0.000 C 
ATOM     37  O   UNL     1       9.998  -8.379   0.000  0.00  0.00    +0.000 OA
BRANCH  36  38
ATOM     38  C   UNL     1      11.055  -6.005   0.000  0.00  0.00    +0.000 C 
BRANCH  38  39
ATOM     39  C   UNL     1      12.425  -6.616   0.000  0.00  0.00    +0.000 C 
ATOM     40  O   UNL     1      12.582  -8.107   0.000  0.00  0.00    +0.000 OA
ATOM     41  O   UNL     1      13.639  -5.734   0.000  0.00  0.00    +0.000 OA
ENDBRANCH  38  39
ENDBRANCH  36  38
ENDBRANCH  35  36
ENDBRANCH  33  35
ENDBRANCH  32  33
ENDBRANCH  31  32
ENDBRANCH  30  31
TORSDOF 12
