53358942
  -OEChem-09092404083D

 71 74  0     1  0  0  0  0  0999 V2000
   -0.1635    5.2087   -0.5163 Cl  0  0  0  0  0  0  0  0  0  0  0  0
   -5.2063    2.2974   -4.0761 Cl  0  0  0  0  0  0  0  0  0  0  0  0
   -1.5262   -0.5486   -2.0714 F   0  0  0  0  0  0  0  0  0  0  0  0
   -0.7604    2.3721   -1.0958 F   0  0  0  0  0  0  0  0  0  0  0  0
    1.1174   -2.6194    0.3388 O   0  0  0  0  0  0  0  0  0  0  0  0
    3.8734    1.6286    0.9870 O   0  0  0  0  0  0  0  0  0  0  0  0
    7.5103   -2.1702   -1.8568 O   0  0  0  0  0  0  0  0  0  0  0  0
    8.1457   -0.0698   -1.2638 O   0  0  0  0  0  0  0  0  0  0  0  0
   -1.1370   -2.1229    1.4528 N   0  0  0  0  0  0  0  0  0  0  0  0
    2.0495   -0.5127    0.8185 N   0  0  0  0  0  0  0  0  0  0  0  0
   -3.5213    0.3810    2.9401 N   0  0  0  0  0  0  0  0  0  0  0  0
   -2.3632   -0.2189    0.6321 C   0  0  1  0  0  0  0  0  0  0  0  0
   -2.2299   -1.7676    0.5231 C   0  0  2  0  0  0  0  0  0  0  0  0
   -0.8489    0.1598    0.6653 C   0  0  2  0  0  0  0  0  0  0  0  0
   -0.1929   -0.9908    1.4606 C   0  0  2  0  0  0  0  0  0  0  0  0
   -3.4975   -2.5701    0.8122 C   0  0  0  0  0  0  0  0  0  0  0  0
   -3.4941   -4.0380    0.3143 C   0  0  0  0  0  0  0  0  0  0  0  0
   -3.0849    0.4198   -0.5657 C   0  0  0  0  0  0  0  0  0  0  0  0
   -0.5228    1.5729    1.1198 C   0  0  0  0  0  0  0  0  0  0  0  0
    1.0580   -1.4853    0.8030 C   0  0  0  0  0  0  0  0  0  0  0  0
   -3.0144    0.1184    1.9300 C   0  0  0  0  0  0  0  0  0  0  0  0
   -3.3611   -4.0237   -1.2210 C   0  0  0  0  0  0  0  0  0  0  0  0
   -2.3071   -4.8209    0.8997 C   0  0  0  0  0  0  0  0  0  0  0  0
   -4.8041   -4.7531    0.6844 C   0  0  0  0  0  0  0  0  0  0  0  0
   -2.6109    0.2100   -1.8606 C   0  0  0  0  0  0  0  0  0  0  0  0
   -4.2148    1.2103   -0.3561 C   0  0  0  0  0  0  0  0  0  0  0  0
   -0.4966    2.6182    0.1965 C   0  0  0  0  0  0  0  0  0  0  0  0
   -0.2499    1.8234    2.4646 C   0  0  0  0  0  0  0  0  0  0  0  0
   -3.2670    0.7905   -2.9462 C   0  0  0  0  0  0  0  0  0  0  0  0
   -4.8707    1.7911   -1.4416 C   0  0  0  0  0  0  0  0  0  0  0  0
   -0.1975    3.9138    0.6181 C   0  0  0  0  0  0  0  0  0  0  0  0
    0.0494    3.1189    2.8862 C   0  0  0  0  0  0  0  0  0  0  0  0
   -4.3969    1.5810   -2.7366 C   0  0  0  0  0  0  0  0  0  0  0  0
    0.0756    4.1642    1.9629 C   0  0  0  0  0  0  0  0  0  0  0  0
    3.3604   -0.6109    0.2946 C   0  0  0  0  0  0  0  0  0  0  0  0
    4.2470    0.4617    0.3896 C   0  0  0  0  0  0  0  0  0  0  0  0
    3.7628   -1.7957   -0.3220 C   0  0  0  0  0  0  0  0  0  0  0  0
    5.5358    0.3496   -0.1319 C   0  0  0  0  0  0  0  0  0  0  0  0
    5.0516   -1.9078   -0.8437 C   0  0  0  0  0  0  0  0  0  0  0  0
    5.9381   -0.8351   -0.7486 C   0  0  0  0  0  0  0  0  0  0  0  0
    3.2831    2.6227    0.1525 C   0  0  0  0  0  0  0  0  0  0  0  0
    7.2818   -0.9526   -1.2923 C   0  0  0  0  0  0  0  0  0  0  0  0
   -1.8681   -2.0180   -0.4754 H   0  0  0  0  0  0  0  0  0  0  0  0
   -0.4254    0.0933   -0.3446 H   0  0  0  0  0  0  0  0  0  0  0  0
    0.0396   -0.7796    2.5053 H   0  0  0  0  0  0  0  0  0  0  0  0
   -4.3554   -2.0597    0.3535 H   0  0  0  0  0  0  0  0  0  0  0  0
   -3.6998   -2.5711    1.8924 H   0  0  0  0  0  0  0  0  0  0  0  0
   -0.6730   -2.9850    1.1885 H   0  0  0  0  0  0  0  0  0  0  0  0
   -3.5092   -5.0312   -1.6287 H   0  0  0  0  0  0  0  0  0  0  0  0
   -4.1146   -3.3739   -1.6803 H   0  0  0  0  0  0  0  0  0  0  0  0
   -2.3751   -3.6980   -1.5650 H   0  0  0  0  0  0  0  0  0  0  0  0
   -2.4613   -5.8992    0.7663 H   0  0  0  0  0  0  0  0  0  0  0  0
   -1.3651   -4.6034    0.3896 H   0  0  0  0  0  0  0  0  0  0  0  0
   -2.1989   -4.6503    1.9759 H   0  0  0  0  0  0  0  0  0  0  0  0
   -4.8242   -5.7807    0.3046 H   0  0  0  0  0  0  0  0  0  0  0  0
   -5.6705   -4.2271    0.2679 H   0  0  0  0  0  0  0  0  0  0  0  0
   -4.9311   -4.7958    1.7719 H   0  0  0  0  0  0  0  0  0  0  0  0
   -4.6289    1.4093    0.6259 H   0  0  0  0  0  0  0  0  0  0  0  0
   -0.2914    1.0546    3.2270 H   0  0  0  0  0  0  0  0  0  0  0  0
    1.8417    0.3738    1.2700 H   0  0  0  0  0  0  0  0  0  0  0  0
   -2.8860    0.6180   -3.9493 H   0  0  0  0  0  0  0  0  0  0  0  0
   -5.7500    2.4051   -1.2641 H   0  0  0  0  0  0  0  0  0  0  0  0
    0.2545    3.3157    3.9344 H   0  0  0  0  0  0  0  0  0  0  0  0
    0.3091    5.1687    2.3061 H   0  0  0  0  0  0  0  0  0  0  0  0
    3.1373   -2.6693   -0.4359 H   0  0  0  0  0  0  0  0  0  0  0  0
    6.2177    1.1929   -0.0508 H   0  0  0  0  0  0  0  0  0  0  0  0
    5.3244   -2.8476   -1.3158 H   0  0  0  0  0  0  0  0  0  0  0  0
    2.9381    3.4420    0.7878 H   0  0  0  0  0  0  0  0  0  0  0  0
    2.4331    2.2161   -0.4028 H   0  0  0  0  0  0  0  0  0  0  0  0
    4.0274    3.0160   -0.5471 H   0  0  0  0  0  0  0  0  0  0  0  0
    8.4190   -2.2392   -2.2202 H   0  0  0  0  0  0  0  0  0  0  0  0
  1 31  1  0  0  0  0
  2 33  1  0  0  0  0
  3 25  1  0  0  0  0
  4 27  1  0  0  0  0
  5 20  2  0  0  0  0
  6 36  1  0  0  0  0
  6 41  1  0  0  0  0
  7 42  1  0  0  0  0
  7 71  1  0  0  0  0
  8 42  2  0  0  0  0
  9 13  1  0  0  0  0
  9 15  1  0  0  0  0
  9 48  1  0  0  0  0
 10 20  1  0  0  0  0
 10 35  1  0  0  0  0
 10 60  1  0  0  0  0
 11 21  3  0  0  0  0
 12 13  1  0  0  0  0
 12 14  1  0  0  0  0
 12 18  1  0  0  0  0
 12 21  1  0  0  0  0
 13 16  1  0  0  0  0
 13 43  1  0  0  0  0
 14 15  1  0  0  0  0
 14 19  1  0  0  0  0
 14 44  1  0  0  0  0
 15 20  1  0  0  0  0
 15 45  1  0  0  0  0
 16 17  1  0  0  0  0
 16 46  1  0  0  0  0
 16 47  1  0  0  0  0
 17 22  1  0  0  0  0
 17 23  1  0  0  0  0
 17 24  1  0  0  0  0
 18 25  2  0  0  0  0
 18 26  1  0  0  0  0
 19 27  2  0  0  0  0
 19 28  1  0  0  0  0
 22 49  1  0  0  0  0
 22 50  1  0  0  0  0
 22 51  1  0  0  0  0
 23 52  1  0  0  0  0
 23 53  1  0  0  0  0
 23 54  1  0  0  0  0
 24 55  1  0  0  0  0
 24 56  1  0  0  0  0
 24 57  1  0  0  0  0
 25 29  1  0  0  0  0
 26 30  2  0  0  0  0
 26 58  1  0  0  0  0
 27 31  1  0  0  0  0
 28 32  2  0  0  0  0
 28 59  1  0  0  0  0
 29 33  2  0  0  0  0
 29 61  1  0  0  0  0
 30 33  1  0  0  0  0
 30 62  1  0  0  0  0
 31 34  2  0  0  0  0
 32 34  1  0  0  0  0
 32 63  1  0  0  0  0
 34 64  1  0  0  0  0
 35 36  2  0  0  0  0
 35 37  1  0  0  0  0
 36 38  1  0  0  0  0
 37 39  2  0  0  0  0
 37 65  1  0  0  0  0
 38 40  2  0  0  0  0
 38 66  1  0  0  0  0
 39 40  1  0  0  0  0
 39 67  1  0  0  0  0
 40 42  1  0  0  0  0
 41 68  1  0  0  0  0
 41 69  1  0  0  0  0
 41 70  1  0  0  0  0
M  END
> <PUBCHEM_COMPOUND_CID>
53358942

> <PUBCHEM_CONFORMER_RMSD>
1.2

> <PUBCHEM_CONFORMER_DIVERSEORDER>
1
10
3
15
12
6
13
5
14
19
17
16
7
11
2
20
9
8
18
4

> <PUBCHEM_MMFF94_PARTIAL_CHARGES>
49
1 -0.18
10 -0.55
11 -0.56
12 0.34
13 0.27
14 0.14
15 0.33
18 -0.14
19 -0.14
2 -0.18
20 0.57
21 0.36
25 0.19
26 -0.15
27 0.19
28 -0.15
29 -0.15
3 -0.19
30 -0.15
31 0.18
32 -0.15
33 0.18
34 -0.15
35 0.12
36 0.08
37 -0.15
38 -0.15
39 -0.15
4 -0.19
40 0.09
41 0.28
42 0.63
48 0.36
5 -0.57
58 0.15
59 0.15
6 -0.36
60 0.37
61 0.15
62 0.15
63 0.15
64 0.15
65 0.15
66 0.15
67 0.15
7 -0.65
71 0.5
8 -0.57
9 -0.9

> <PUBCHEM_EFFECTIVE_ROTOR_COUNT>
10

> <PUBCHEM_PHARMACOPHORE_FEATURES>
14
1 10 donor
1 11 acceptor
1 5 acceptor
1 6 acceptor
1 7 acceptor
1 8 acceptor
1 9 cation
1 9 donor
3 7 8 42 anion
4 17 22 23 24 hydrophobe
5 9 12 13 14 15 rings
6 18 25 26 29 30 33 rings
6 19 27 28 31 32 34 rings
6 35 36 37 38 39 40 rings

> <PUBCHEM_HEAVY_ATOM_COUNT>
42

> <PUBCHEM_ATOM_DEF_STEREO_COUNT>
4

> <PUBCHEM_ATOM_UDEF_STEREO_COUNT>
0

> <PUBCHEM_BOND_DEF_STEREO_COUNT>
0

> <PUBCHEM_BOND_UDEF_STEREO_COUNT>
0

> <PUBCHEM_ISOTOPIC_ATOM_COUNT>
0

> <PUBCHEM_COMPONENT_COUNT>
1

> <PUBCHEM_CACTVS_TAUTO_COUNT>
19

> <PUBCHEM_CONFORMER_ID>
032E315E00000001

> <PUBCHEM_MMFF94_ENERGY>
146.1436

> <PUBCHEM_FEATURE_SELFOVERLAP>
71.105

> <PUBCHEM_SHAPE_FINGERPRINT>
10010297 198 17405427699008539297
10032420 55 17968645142122822867
10165383 225 18187367576554407377
11227688 84 18202277013587122006
11285246 1 18055884771716791207
11297750 10 18192711365931602667
11445158 3 17771071780609199455
12633046 712 18200313359039683129
12788726 201 18055620725157853689
13149001 5 18267843100101761771
13690498 29 18261677085742812455
13911987 19 18263075514530715383
15324884 4 17985527065240918666
15448158 91 17908699875772476346
15775530 1 17977634801294894883
16114785 44 17842292375594150737
20775438 99 17766231631607625439
23559900 14 18413107269328522992
24180151 248 17755864465476638645
244849 19 17984400087466070001
469060 322 16662083285645075688
508706 21 17894910788578219378
613672 6 18129646578855055232

> <PUBCHEM_SHAPE_MULTIPOLES>
815.11
13.65
6.24
2.91
28.8
0.93
1.27
7.77
11.45
-6.35
-1.42
-3.75
-2.29
4.48

> <PUBCHEM_SHAPE_SELFOVERLAP>
1749.632

> <PUBCHEM_SHAPE_VOLUME>
453.1

> <PUBCHEM_COORDINATE_TYPE>
2
5
10

$$$$
