71678098
  -OEChem-09092404083D

 62 66  0     1  0  0  0  0  0999 V2000
    6.2991    2.5247    2.4251 Cl  0  0  0  0  0  0  0  0  0  0  0  0
    2.5844   -5.5214    1.2901 Cl  0  0  0  0  0  0  0  0  0  0  0  0
    1.4300    2.9146    1.4146 O   0  0  0  0  0  0  0  0  0  0  0  0
    3.5586    0.1879   -2.0989 O   0  0  0  0  0  0  0  0  0  0  0  0
   -3.7073   -0.5503    1.7610 O   0  0  0  0  0  0  0  0  0  0  0  0
   -7.6003    0.7570   -0.3615 O   0  0  0  0  0  0  0  0  0  0  0  0
   -1.2955    0.0326   -0.7520 N   0  0  0  0  0  0  0  0  0  0  0  0
    2.0525    1.0572    0.0335 N   0  0  0  0  0  0  0  0  0  0  0  0
   -1.4122    1.8390    0.6023 N   0  0  0  0  0  0  0  0  0  0  0  0
    5.5634    0.8246   -1.0868 N   0  0  0  0  0  0  0  0  0  0  0  0
   -5.6577    0.0955    0.7108 N   0  0  0  0  0  0  0  0  0  0  0  0
   -5.5961    1.5385   -1.2182 N   0  0  0  0  0  0  0  0  0  0  0  0
    1.3474   -0.0170   -0.7524 C   0  0  2  0  0  0  0  0  0  0  0  0
   -0.0328    0.4028   -0.4547 C   0  0  0  0  0  0  0  0  0  0  0  0
   -0.1320    1.4902    0.3562 C   0  0  0  0  0  0  0  0  0  0  0  0
   -1.7067   -1.0666   -1.5904 C   0  0  0  0  0  0  0  0  0  0  0  0
    1.1760    1.9543    0.7064 C   0  0  0  0  0  0  0  0  0  0  0  0
   -2.1023    0.9359   -0.0817 C   0  0  0  0  0  0  0  0  0  0  0  0
    1.6538   -1.3833   -0.2448 C   0  0  0  0  0  0  0  0  0  0  0  0
    3.4113    1.1761    0.0473 C   0  0  0  0  0  0  0  0  0  0  0  0
   -2.4876   -0.5803   -2.8137 C   0  0  0  0  0  0  0  0  0  0  0  0
   -2.5144   -2.1027   -0.8047 C   0  0  0  0  0  0  0  0  0  0  0  0
   -3.5469    0.8776   -0.1420 C   0  0  0  0  0  0  0  0  0  0  0  0
    1.9437   -1.5772    1.1058 C   0  0  0  0  0  0  0  0  0  0  0  0
    1.6508   -2.4692   -1.1204 C   0  0  0  0  0  0  0  0  0  0  0  0
    4.1697    0.6803   -1.1508 C   0  0  0  0  0  0  0  0  0  0  0  0
    4.0701    1.7139    1.0834 C   0  0  0  0  0  0  0  0  0  0  0  0
    2.2305   -2.8569    1.5809 C   0  0  0  0  0  0  0  0  0  0  0  0
    1.9376   -3.7488   -0.6454 C   0  0  0  0  0  0  0  0  0  0  0  0
   -4.3104    0.1570    0.7535 C   0  0  0  0  0  0  0  0  0  0  0  0
   -4.2508    1.5556   -1.1163 C   0  0  0  0  0  0  0  0  0  0  0  0
    5.5056    1.8251    1.0667 C   0  0  0  0  0  0  0  0  0  0  0  0
    2.2274   -3.9428    0.7052 C   0  0  0  0  0  0  0  0  0  0  0  0
    6.1970    1.3882    0.0081 C   0  0  0  0  0  0  0  0  0  0  0  0
    6.4021    0.3771   -2.1933 C   0  0  0  0  0  0  0  0  0  0  0  0
   -6.2272    0.7995   -0.2860 C   0  0  0  0  0  0  0  0  0  0  0  0
   -4.5648   -1.2664    2.6416 C   0  0  0  0  0  0  0  0  0  0  0  0
   -8.2658   -0.0224    0.6216 C   0  0  0  0  0  0  0  0  0  0  0  0
    1.4762    0.1162   -1.8291 H   0  0  0  0  0  0  0  0  0  0  0  0
   -0.7949   -1.5446   -1.9565 H   0  0  0  0  0  0  0  0  0  0  0  0
   -3.5515   -0.4347   -2.6184 H   0  0  0  0  0  0  0  0  0  0  0  0
   -2.4337   -1.3414   -3.6015 H   0  0  0  0  0  0  0  0  0  0  0  0
   -2.0696    0.3447   -3.2252 H   0  0  0  0  0  0  0  0  0  0  0  0
   -3.5740   -1.8558   -0.7214 H   0  0  0  0  0  0  0  0  0  0  0  0
   -2.1013   -2.2690    0.1958 H   0  0  0  0  0  0  0  0  0  0  0  0
   -2.4764   -3.0626   -1.3338 H   0  0  0  0  0  0  0  0  0  0  0  0
    1.9339   -0.7624    1.8238 H   0  0  0  0  0  0  0  0  0  0  0  0
    1.4381   -2.3318   -2.1771 H   0  0  0  0  0  0  0  0  0  0  0  0
    3.5691    2.0460    1.9857 H   0  0  0  0  0  0  0  0  0  0  0  0
    2.4502   -2.9942    2.6365 H   0  0  0  0  0  0  0  0  0  0  0  0
    1.9344   -4.5851   -1.3397 H   0  0  0  0  0  0  0  0  0  0  0  0
   -3.7496    2.1586   -1.8678 H   0  0  0  0  0  0  0  0  0  0  0  0
    7.2789    1.4534   -0.0440 H   0  0  0  0  0  0  0  0  0  0  0  0
    5.8017   -0.0512   -3.0004 H   0  0  0  0  0  0  0  0  0  0  0  0
    6.9621    1.2317   -2.5859 H   0  0  0  0  0  0  0  0  0  0  0  0
    7.0978   -0.3854   -1.8291 H   0  0  0  0  0  0  0  0  0  0  0  0
   -3.9382   -1.7734    3.3814 H   0  0  0  0  0  0  0  0  0  0  0  0
   -5.1328   -2.0314    2.1015 H   0  0  0  0  0  0  0  0  0  0  0  0
   -5.2354   -0.5866    3.1778 H   0  0  0  0  0  0  0  0  0  0  0  0
   -9.3414    0.0424    0.4317 H   0  0  0  0  0  0  0  0  0  0  0  0
   -8.0783    0.3680    1.6276 H   0  0  0  0  0  0  0  0  0  0  0  0
   -7.9755   -1.0762    0.5521 H   0  0  0  0  0  0  0  0  0  0  0  0
  1 32  1  0  0  0  0
  2 33  1  0  0  0  0
  3 17  2  0  0  0  0
  4 26  2  0  0  0  0
  5 30  1  0  0  0  0
  5 37  1  0  0  0  0
  6 36  1  0  0  0  0
  6 38  1  0  0  0  0
  7 14  1  0  0  0  0
  7 16  1  0  0  0  0
  7 18  1  0  0  0  0
  8 13  1  0  0  0  0
  8 17  1  0  0  0  0
  8 20  1  0  0  0  0
  9 15  1  0  0  0  0
  9 18  2  0  0  0  0
 10 26  1  0  0  0  0
 10 34  1  0  0  0  0
 10 35  1  0  0  0  0
 11 30  2  0  0  0  0
 11 36  1  0  0  0  0
 12 31  1  0  0  0  0
 12 36  2  0  0  0  0
 13 14  1  0  0  0  0
 13 19  1  0  0  0  0
 13 39  1  0  0  0  0
 14 15  2  0  0  0  0
 15 17  1  0  0  0  0
 16 21  1  0  0  0  0
 16 22  1  0  0  0  0
 16 40  1  0  0  0  0
 18 23  1  0  0  0  0
 19 24  2  0  0  0  0
 19 25  1  0  0  0  0
 20 26  1  0  0  0  0
 20 27  2  0  0  0  0
 21 41  1  0  0  0  0
 21 42  1  0  0  0  0
 21 43  1  0  0  0  0
 22 44  1  0  0  0  0
 22 45  1  0  0  0  0
 22 46  1  0  0  0  0
 23 30  1  0  0  0  0
 23 31  2  0  0  0  0
 24 28  1  0  0  0  0
 24 47  1  0  0  0  0
 25 29  2  0  0  0  0
 25 48  1  0  0  0  0
 27 32  1  0  0  0  0
 27 49  1  0  0  0  0
 28 33  2  0  0  0  0
 28 50  1  0  0  0  0
 29 33  1  0  0  0  0
 29 51  1  0  0  0  0
 31 52  1  0  0  0  0
 32 34  2  0  0  0  0
 34 53  1  0  0  0  0
 35 54  1  0  0  0  0
 35 55  1  0  0  0  0
 35 56  1  0  0  0  0
 37 57  1  0  0  0  0
 37 58  1  0  0  0  0
 37 59  1  0  0  0  0
 38 60  1  0  0  0  0
 38 61  1  0  0  0  0
 38 62  1  0  0  0  0
M  END
> <PUBCHEM_COMPOUND_CID>
71678098

> <PUBCHEM_CONFORMER_RMSD>
1

> <PUBCHEM_CONFORMER_DIVERSEORDER>
1
7
8
3
5
4
6
2

> <PUBCHEM_MMFF94_PARTIAL_CHARGES>
43
1 -0.14
10 -0.47
11 -0.62
12 -0.62
13 0.62
14 -0.33
15 0.14
16 0.26
17 0.72
18 0.13
19 -0.14
2 -0.18
20 0.12
23 0.05
24 -0.15
25 -0.15
26 0.62
27 -0.15
28 -0.15
29 -0.15
3 -0.57
30 0.39
31 0.16
32 0.14
33 0.18
34 -0.04
35 0.3
36 0.7
37 0.28
38 0.28
4 -0.57
47 0.15
48 0.15
49 0.15
5 -0.36
50 0.15
51 0.15
52 0.15
53 0.15
6 -0.36
7 0.05
8 -0.47
9 -0.57

> <PUBCHEM_EFFECTIVE_ROTOR_COUNT>
6.4

> <PUBCHEM_PHARMACOPHORE_FEATURES>
10
1 3 acceptor
1 4 acceptor
3 11 12 36 cation
3 16 21 22 hydrophobe
3 7 9 18 cation
5 7 9 14 15 18 rings
5 8 13 14 15 17 rings
6 10 20 26 27 32 34 rings
6 11 12 23 30 31 36 rings
6 19 24 25 28 29 33 rings

> <PUBCHEM_HEAVY_ATOM_COUNT>
38

> <PUBCHEM_ATOM_DEF_STEREO_COUNT>
1

> <PUBCHEM_ATOM_UDEF_STEREO_COUNT>
0

> <PUBCHEM_BOND_DEF_STEREO_COUNT>
0

> <PUBCHEM_BOND_UDEF_STEREO_COUNT>
0

> <PUBCHEM_ISOTOPIC_ATOM_COUNT>
0

> <PUBCHEM_COMPONENT_COUNT>
1

> <PUBCHEM_CACTVS_TAUTO_COUNT>
1

> <PUBCHEM_CONFORMER_ID>
0445B89200000001

> <PUBCHEM_MMFF94_ENERGY>
140.4454

> <PUBCHEM_FEATURE_SELFOVERLAP>
51.046

> <PUBCHEM_SHAPE_FINGERPRINT>
10 15 18335978778760385600
10369192 42 17822018648425013052
11007060 377 17910664686108332720
11135926 11 18337372894847086030
11578080 2 17678736730990959996
11719270 70 18260829293673871474
12236239 1 16343708733936614857
12422481 6 17821444681865003498
12788726 201 17560519495772966585
131258 43 17837221377061022174
13140716 1 18127402573895757217
13533116 47 18335984156544145643
13583140 156 18411142467829825825
14114211 68 18261409827529604934
14118638 360 18337954494366619101
14910302 57 17241329062985486559
15183329 4 16845580820244537140
15927050 60 18411978091961551207
17913733 40 18410576201581657146
18681886 176 16271636884306061181
19319366 153 18410293610066605630
20771845 171 17676498224607347022
21033648 29 18267573792847113384
21781051 124 18188221970124778290
21796203 349 17764619537098144946
22956985 138 17826504471563241802
23559900 14 17823145518926184239
23569914 152 16763947300125555565
23569943 247 17130166207828407214
27425 322 18198620119954906380
3178227 256 18412545452540073408
3633792 109 17346321475703892849
4340502 62 18186802474189153735
437795 51 18409739447347324390
4403749 210 18119244210507498496
469060 322 18042680787817600351
5104073 3 18267868277416751417
5265222 85 18044390537305094684
563151 74 18410570682828301819
57359948 33 17531243899466767061
59755656 215 18408324380240523737
6679774 75 18040424487743859498
70251023 43 17914627051147362902

> <PUBCHEM_SHAPE_MULTIPOLES>
732.4
16.55
4.23
2.12
16.91
7.22
-0.08
-9.94
1.77
-6.22
2.15
-0.87
0.21
1.26

> <PUBCHEM_SHAPE_SELFOVERLAP>
1601.201

> <PUBCHEM_SHAPE_VOLUME>
401.7

> <PUBCHEM_COORDINATE_TYPE>
2
5
10

$$$$
